/*---------------------------------------------------------------------------*\
  =========                 |
  \\      /  F ield         | OpenFOAM: The Open Source CFD Toolbox
   \\    /   O peration     | Website:  https://openfoam.org
    \\  /    A nd           | Version:  v11
     \\/     M anipulation  |
\*---------------------------------------------------------------------------*/
Build  : v11-9cbf94f3339d
Exec   : icoFoam
Date   : Aug 20 2025
Time   : 12:41:48
Host   : "Nithin"
PID    : 5536
I/O    : uncollated
Case   : /home/user/OpenFOAM/run/tutorials/cavityLaminar
nProcs : 1
sigFpe : Enabling floating point exception trapping (FOAM_SIGFPE).
fileModificationChecking : Monitoring run-time modified files using timeStampMaster (fileModificationSkew 10)
allowSystemOperations : Allowing user-supplied system call operations

// * * * * * * * * * * * * * * * * * * * * * * * * * * * * * * * * * * * * * //
Create time

Create mesh for time = 0

Reading physicalProperties

Reading field p

Reading field U

Reading/calculating face flux field phi


Starting time loop

Time = 0.005s

Courant Number mean: 0 max: 0
smoothSolver:  Solving for Ux, Initial residual = 1, Final residual = 8.90511e-06, No Iterations 19
smoothSolver:  Solving for Uy, Initial residual = 0, Final residual = 0, No Iterations 0
amgxPCG(skeleton): constructed config="system/amgx.json"
amgxPCG(skeleton): NOT solving; residual=2.0442e-06
amgxPCG:  Solving for p, Initial residual = 0, Final residual = 2.0442e-06, No Iterations 0
time step continuity errors : sum local = 0.00666244, global = 0, cumulative = 0
amgxPCG(skeleton): constructed config="system/amgx.json"
amgxPCG(skeleton): NOT solving; residual=2.0442e-06
amgxPCG:  Solving for p, Initial residual = 0, Final residual = 2.0442e-06, No Iterations 0
time step continuity errors : sum local = 0.00666247, global = 0, cumulative = 0
ExecutionTime = 0.00459 s  ClockTime = 0 s

Time = 0.01s

Courant Number mean: 0.0591208 max: 0.66663
smoothSolver:  Solving for Ux, Initial residual = 0.103092, Final residual = 7.02526e-06, No Iterations 17
smoothSolver:  Solving for Uy, Initial residual = 0, Final residual = 0, No Iterations 0
amgxPCG(skeleton): constructed config="system/amgx.json"
amgxPCG(skeleton): NOT solving; residual=2.5551e-06
amgxPCG:  Solving for p, Initial residual = 0, Final residual = 2.5551e-06, No Iterations 0
time step continuity errors : sum local = 0.010349, global = 0, cumulative = 0
amgxPCG(skeleton): constructed config="system/amgx.json"
amgxPCG(skeleton): NOT solving; residual=2.5551e-06
amgxPCG:  Solving for p, Initial residual = 0, Final residual = 2.5551e-06, No Iterations 0
time step continuity errors : sum local = 0.0103491, global = 0, cumulative = 0
ExecutionTime = 0.005006 s  ClockTime = 0 s

Time = 0.015s

Courant Number mean: 0.0893256 max: 0.814671
smoothSolver:  Solving for Ux, Initial residual = 0.0435092, Final residual = 8.44174e-06, No Iterations 16
smoothSolver:  Solving for Uy, Initial residual = 0, Final residual = 0, No Iterations 0
amgxPCG(skeleton): constructed config="system/amgx.json"
amgxPCG(skeleton): NOT solving; residual=2.78106e-06
amgxPCG:  Solving for p, Initial residual = 0, Final residual = 2.78106e-06, No Iterations 0
time step continuity errors : sum local = 0.0130258, global = 3.38813e-19, cumulative = 3.38813e-19
amgxPCG(skeleton): constructed config="system/amgx.json"
amgxPCG(skeleton): NOT solving; residual=2.78107e-06
amgxPCG:  Solving for p, Initial residual = 0, Final residual = 2.78107e-06, No Iterations 0
time step continuity errors : sum local = 0.0130259, global = 0, cumulative = 3.38813e-19
ExecutionTime = 0.005355 s  ClockTime = 0 s

Time = 0.02s

Courant Number mean: 0.109791 max: 0.863844
smoothSolver:  Solving for Ux, Initial residual = 0.0268596, Final residual = 6.81493e-06, No Iterations 16
smoothSolver:  Solving for Uy, Initial residual = 0, Final residual = 0, No Iterations 0
amgxPCG(skeleton): constructed config="system/amgx.json"
amgxPCG(skeleton): NOT solving; residual=2.92038e-06
amgxPCG:  Solving for p, Initial residual = 0, Final residual = 2.92038e-06, No Iterations 0
time step continuity errors : sum local = 0.0151956, global = -3.38813e-19, cumulative = 0
amgxPCG(skeleton): constructed config="system/amgx.json"
amgxPCG(skeleton): NOT solving; residual=2.92038e-06
amgxPCG:  Solving for p, Initial residual = 0, Final residual = 2.92038e-06, No Iterations 0
time step continuity errors : sum local = 0.0151957, global = 0, cumulative = 0
ExecutionTime = 0.005878 s  ClockTime = 0 s

Time = 0.025s

Courant Number mean: 0.125511 max: 0.887271
smoothSolver:  Solving for Ux, Initial residual = 0.0194926, Final residual = 9.34569e-06, No Iterations 15
smoothSolver:  Solving for Uy, Initial residual = 0, Final residual = 0, No Iterations 0
amgxPCG(skeleton): constructed config="system/amgx.json"
amgxPCG(skeleton): NOT solving; residual=3.0213e-06
amgxPCG:  Solving for p, Initial residual = 0, Final residual = 3.0213e-06, No Iterations 0
time step continuity errors : sum local = 0.0170386, global = 0, cumulative = 0
amgxPCG(skeleton): constructed config="system/amgx.json"
amgxPCG(skeleton): NOT solving; residual=3.0213e-06
amgxPCG:  Solving for p, Initial residual = 0, Final residual = 3.0213e-06, No Iterations 0
time step continuity errors : sum local = 0.0170387, global = 0, cumulative = 0
ExecutionTime = 0.006222 s  ClockTime = 0 s

Time = 0.03s

Courant Number mean: 0.138312 max: 0.901257
smoothSolver:  Solving for Ux, Initial residual = 0.015278, Final residual = 7.98017e-06, No Iterations 15
smoothSolver:  Solving for Uy, Initial residual = 0, Final residual = 0, No Iterations 0
amgxPCG(skeleton): constructed config="system/amgx.json"
amgxPCG(skeleton): NOT solving; residual=3.10069e-06
amgxPCG:  Solving for p, Initial residual = 0, Final residual = 3.10069e-06, No Iterations 0
time step continuity errors : sum local = 0.0186385, global = 0, cumulative = 0
amgxPCG(skeleton): constructed config="system/amgx.json"
amgxPCG(skeleton): NOT solving; residual=3.10069e-06
amgxPCG:  Solving for p, Initial residual = 0, Final residual = 3.10069e-06, No Iterations 0
time step continuity errors : sum local = 0.0186386, global = 0, cumulative = 0
ExecutionTime = 0.006547 s  ClockTime = 0 s

Time = 0.035s

Courant Number mean: 0.149073 max: 0.910647
smoothSolver:  Solving for Ux, Initial residual = 0.0124846, Final residual = 6.88833e-06, No Iterations 15
smoothSolver:  Solving for Uy, Initial residual = 0, Final residual = 0, No Iterations 0
amgxPCG(skeleton): constructed config="system/amgx.json"
amgxPCG(skeleton): NOT solving; residual=3.16611e-06
amgxPCG:  Solving for p, Initial residual = 0, Final residual = 3.16611e-06, No Iterations 0
time step continuity errors : sum local = 0.0200452, global = 0, cumulative = 0
amgxPCG(skeleton): constructed config="system/amgx.json"
amgxPCG(skeleton): NOT solving; residual=3.16611e-06
amgxPCG:  Solving for p, Initial residual = 0, Final residual = 3.16611e-06, No Iterations 0
time step continuity errors : sum local = 0.0200453, global = 0, cumulative = 0
ExecutionTime = 0.006868 s  ClockTime = 0 s

Time = 0.04s

Courant Number mean: 0.158293 max: 0.917323
smoothSolver:  Solving for Ux, Initial residual = 0.0104718, Final residual = 9.78575e-06, No Iterations 14
smoothSolver:  Solving for Uy, Initial residual = 0, Final residual = 0, No Iterations 0
amgxPCG(skeleton): constructed config="system/amgx.json"
amgxPCG(skeleton): NOT solving; residual=3.22149e-06
amgxPCG:  Solving for p, Initial residual = 0, Final residual = 3.22149e-06, No Iterations 0
time step continuity errors : sum local = 0.0212891, global = 0, cumulative = 0
amgxPCG(skeleton): constructed config="system/amgx.json"
amgxPCG(skeleton): NOT solving; residual=3.2215e-06
amgxPCG:  Solving for p, Initial residual = 0, Final residual = 3.2215e-06, No Iterations 0
time step continuity errors : sum local = 0.0212892, global = 0, cumulative = 0
ExecutionTime = 0.007179 s  ClockTime = 0 s

Time = 0.045s

Courant Number mean: 0.166288 max: 0.922386
smoothSolver:  Solving for Ux, Initial residual = 0.00893239, Final residual = 8.54754e-06, No Iterations 14
smoothSolver:  Solving for Uy, Initial residual = 0, Final residual = 0, No Iterations 0
amgxPCG(skeleton): constructed config="system/amgx.json"
amgxPCG(skeleton): NOT solving; residual=3.26919e-06
amgxPCG:  Solving for p, Initial residual = 0, Final residual = 3.26919e-06, No Iterations 0
time step continuity errors : sum local = 0.0223926, global = 0, cumulative = 0
amgxPCG(skeleton): constructed config="system/amgx.json"
amgxPCG(skeleton): NOT solving; residual=3.26919e-06
amgxPCG:  Solving for p, Initial residual = 0, Final residual = 3.26919e-06, No Iterations 0
time step continuity errors : sum local = 0.0223928, global = 3.38813e-19, cumulative = 3.38813e-19
ExecutionTime = 0.007493 s  ClockTime = 0 s

Time = 0.05s

Courant Number mean: 0.17328 max: 0.926282
smoothSolver:  Solving for Ux, Initial residual = 0.00770969, Final residual = 7.49413e-06, No Iterations 14
smoothSolver:  Solving for Uy, Initial residual = 0, Final residual = 0, No Iterations 0
amgxPCG(skeleton): constructed config="system/amgx.json"
amgxPCG(skeleton): NOT solving; residual=3.31065e-06
amgxPCG:  Solving for p, Initial residual = 0, Final residual = 3.31065e-06, No Iterations 0
time step continuity errors : sum local = 0.0233731, global = 0, cumulative = 3.38813e-19
amgxPCG(skeleton): constructed config="system/amgx.json"
amgxPCG(skeleton): NOT solving; residual=3.31065e-06
amgxPCG:  Solving for p, Initial residual = 0, Final residual = 3.31065e-06, No Iterations 0
time step continuity errors : sum local = 0.0233732, global = 0, cumulative = 3.38813e-19
ExecutionTime = 0.007835 s  ClockTime = 0 s

Time = 0.055s

Courant Number mean: 0.179428 max: 0.929297
smoothSolver:  Solving for Ux, Initial residual = 0.00670816, Final residual = 6.58745e-06, No Iterations 14
smoothSolver:  Solving for Uy, Initial residual = 0, Final residual = 0, No Iterations 0
amgxPCG(skeleton): constructed config="system/amgx.json"
amgxPCG(skeleton): NOT solving; residual=3.34689e-06
amgxPCG:  Solving for p, Initial residual = 0, Final residual = 3.34689e-06, No Iterations 0
time step continuity errors : sum local = 0.0242469, global = 0, cumulative = 3.38813e-19
amgxPCG(skeleton): constructed config="system/amgx.json"
amgxPCG(skeleton): NOT solving; residual=3.34689e-06
amgxPCG:  Solving for p, Initial residual = 0, Final residual = 3.34689e-06, No Iterations 0
time step continuity errors : sum local = 0.024247, global = 0, cumulative = 3.38813e-19
ExecutionTime = 0.008149 s  ClockTime = 0 s

Time = 0.06s

Courant Number mean: 0.184853 max: 0.931656
smoothSolver:  Solving for Ux, Initial residual = 0.00586906, Final residual = 9.47553e-06, No Iterations 13
smoothSolver:  Solving for Uy, Initial residual = 0, Final residual = 0, No Iterations 0
amgxPCG(skeleton): constructed config="system/amgx.json"
amgxPCG(skeleton): NOT solving; residual=3.37864e-06
amgxPCG:  Solving for p, Initial residual = 0, Final residual = 3.37864e-06, No Iterations 0
time step continuity errors : sum local = 0.0250257, global = 0, cumulative = 3.38813e-19
amgxPCG(skeleton): constructed config="system/amgx.json"
amgxPCG(skeleton): NOT solving; residual=3.37864e-06
amgxPCG:  Solving for p, Initial residual = 0, Final residual = 3.37864e-06, No Iterations 0
time step continuity errors : sum local = 0.0250258, global = -3.38813e-19, cumulative = 0
ExecutionTime = 0.008479 s  ClockTime = 0 s

Time = 0.065s

Courant Number mean: 0.189649 max: 0.933519
smoothSolver:  Solving for Ux, Initial residual = 0.00515595, Final residual = 8.35691e-06, No Iterations 13
smoothSolver:  Solving for Uy, Initial residual = 0, Final residual = 0, No Iterations 0
amgxPCG(skeleton): constructed config="system/amgx.json"
amgxPCG(skeleton): NOT solving; residual=3.40651e-06
amgxPCG:  Solving for p, Initial residual = 0, Final residual = 3.40651e-06, No Iterations 0
time step continuity errors : sum local = 0.0257179, global = 0, cumulative = 0
amgxPCG(skeleton): constructed config="system/amgx.json"
amgxPCG(skeleton): NOT solving; residual=3.40651e-06
amgxPCG:  Solving for p, Initial residual = 0, Final residual = 3.40651e-06, No Iterations 0
time step continuity errors : sum local = 0.0257181, global = 0, cumulative = 0
ExecutionTime = 0.008795 s  ClockTime = 0 s

Time = 0.07s

Courant Number mean: 0.193898 max: 0.935004
smoothSolver:  Solving for Ux, Initial residual = 0.00454242, Final residual = 7.37871e-06, No Iterations 13
smoothSolver:  Solving for Uy, Initial residual = 0, Final residual = 0, No Iterations 0
amgxPCG(skeleton): constructed config="system/amgx.json"
amgxPCG(skeleton): NOT solving; residual=3.43097e-06
amgxPCG:  Solving for p, Initial residual = 0, Final residual = 3.43097e-06, No Iterations 0
time step continuity errors : sum local = 0.0263373, global = 3.38813e-19, cumulative = 3.38813e-19
amgxPCG(skeleton): constructed config="system/amgx.json"
amgxPCG(skeleton): NOT solving; residual=3.43098e-06
amgxPCG:  Solving for p, Initial residual = 0, Final residual = 3.43098e-06, No Iterations 0
time step continuity errors : sum local = 0.0263374, global = 3.38813e-19, cumulative = 6.77626e-19
ExecutionTime = 0.009173 s  ClockTime = 0 s

Time = 0.075s

Courant Number mean: 0.197667 max: 0.936212
smoothSolver:  Solving for Ux, Initial residual = 0.00401019, Final residual = 6.52094e-06, No Iterations 13
smoothSolver:  Solving for Uy, Initial residual = 0, Final residual = 0, No Iterations 0
amgxPCG(skeleton): constructed config="system/amgx.json"
amgxPCG(skeleton): NOT solving; residual=3.45246e-06
amgxPCG:  Solving for p, Initial residual = 0, Final residual = 3.45246e-06, No Iterations 0
time step continuity errors : sum local = 0.0268864, global = 0, cumulative = 6.77626e-19
amgxPCG(skeleton): constructed config="system/amgx.json"
amgxPCG(skeleton): NOT solving; residual=3.45246e-06
amgxPCG:  Solving for p, Initial residual = 0, Final residual = 3.45246e-06, No Iterations 0
time step continuity errors : sum local = 0.0268865, global = 0, cumulative = 6.77626e-19
ExecutionTime = 0.009504 s  ClockTime = 0 s

Time = 0.08s

Courant Number mean: 0.201011 max: 0.937284
smoothSolver:  Solving for Ux, Initial residual = 0.00354529, Final residual = 9.42378e-06, No Iterations 12
smoothSolver:  Solving for Uy, Initial residual = 0, Final residual = 0, No Iterations 0
amgxPCG(skeleton): constructed config="system/amgx.json"
amgxPCG(skeleton): NOT solving; residual=3.47131e-06
amgxPCG:  Solving for p, Initial residual = 0, Final residual = 3.47131e-06, No Iterations 0
time step continuity errors : sum local = 0.0273766, global = -3.38813e-19, cumulative = 3.38813e-19
amgxPCG(skeleton): constructed config="system/amgx.json"
amgxPCG(skeleton): NOT solving; residual=3.47132e-06
amgxPCG:  Solving for p, Initial residual = 0, Final residual = 3.47132e-06, No Iterations 0
time step continuity errors : sum local = 0.0273768, global = 3.38813e-19, cumulative = 6.77626e-19
ExecutionTime = 0.011452 s  ClockTime = 0 s

Time = 0.085s

Courant Number mean: 0.203978 max: 0.938165
smoothSolver:  Solving for Ux, Initial residual = 0.00313768, Final residual = 8.33911e-06, No Iterations 12
smoothSolver:  Solving for Uy, Initial residual = 0, Final residual = 0, No Iterations 0
amgxPCG(skeleton): constructed config="system/amgx.json"
amgxPCG(skeleton): NOT solving; residual=3.48787e-06
amgxPCG:  Solving for p, Initial residual = 0, Final residual = 3.48787e-06, No Iterations 0
time step continuity errors : sum local = 0.0278126, global = 0, cumulative = 6.77626e-19
amgxPCG(skeleton): constructed config="system/amgx.json"
amgxPCG(skeleton): NOT solving; residual=3.48788e-06
amgxPCG:  Solving for p, Initial residual = 0, Final residual = 3.48788e-06, No Iterations 0
time step continuity errors : sum local = 0.0278127, global = 0, cumulative = 6.77626e-19
ExecutionTime = 0.012287 s  ClockTime = 0 s

Time = 0.09s

Courant Number mean: 0.206613 max: 0.938893
smoothSolver:  Solving for Ux, Initial residual = 0.00277887, Final residual = 7.38208e-06, No Iterations 12
smoothSolver:  Solving for Uy, Initial residual = 0, Final residual = 0, No Iterations 0
amgxPCG(skeleton): constructed config="system/amgx.json"
amgxPCG(skeleton): NOT solving; residual=3.50242e-06
amgxPCG:  Solving for p, Initial residual = 0, Final residual = 3.50242e-06, No Iterations 0
time step continuity errors : sum local = 0.0281995, global = 3.38813e-19, cumulative = 1.01644e-18
amgxPCG(skeleton): constructed config="system/amgx.json"
amgxPCG(skeleton): NOT solving; residual=3.50242e-06
amgxPCG:  Solving for p, Initial residual = 0, Final residual = 3.50242e-06, No Iterations 0
time step continuity errors : sum local = 0.0281996, global = -3.38813e-19, cumulative = 6.77626e-19
ExecutionTime = 0.013281 s  ClockTime = 0 s

Time = 0.095s

Courant Number mean: 0.208953 max: 0.939498
smoothSolver:  Solving for Ux, Initial residual = 0.00246241, Final residual = 6.53709e-06, No Iterations 12
smoothSolver:  Solving for Uy, Initial residual = 0, Final residual = 0, No Iterations 0
amgxPCG(skeleton): constructed config="system/amgx.json"
amgxPCG(skeleton): NOT solving; residual=3.5152e-06
amgxPCG:  Solving for p, Initial residual = 0, Final residual = 3.5152e-06, No Iterations 0
time step continuity errors : sum local = 0.0285443, global = 0, cumulative = 6.77626e-19
amgxPCG(skeleton): constructed config="system/amgx.json"
amgxPCG(skeleton): NOT solving; residual=3.5152e-06
amgxPCG:  Solving for p, Initial residual = 0, Final residual = 3.5152e-06, No Iterations 0
time step continuity errors : sum local = 0.0285444, global = 0, cumulative = 6.77626e-19
ExecutionTime = 0.014103 s  ClockTime = 0 s

Time = 0.1s

Courant Number mean: 0.211032 max: 0.940004
smoothSolver:  Solving for Ux, Initial residual = 0.00218281, Final residual = 9.46755e-06, No Iterations 11
smoothSolver:  Solving for Uy, Initial residual = 0, Final residual = 0, No Iterations 0
amgxPCG(skeleton): constructed config="system/amgx.json"
amgxPCG(skeleton): NOT solving; residual=3.52642e-06
amgxPCG:  Solving for p, Initial residual = 0, Final residual = 3.52642e-06, No Iterations 0
time step continuity errors : sum local = 0.0288512, global = 3.38813e-19, cumulative = 1.01644e-18
amgxPCG(skeleton): constructed config="system/amgx.json"
amgxPCG(skeleton): NOT solving; residual=3.52642e-06
amgxPCG:  Solving for p, Initial residual = 0, Final residual = 3.52642e-06, No Iterations 0
time step continuity errors : sum local = 0.0288514, global = 0, cumulative = 1.01644e-18
ExecutionTime = 0.01604 s  ClockTime = 0 s

Time = 0.105s

Courant Number mean: 0.212875 max: 0.940429
smoothSolver:  Solving for Ux, Initial residual = 0.00193577, Final residual = 8.38985e-06, No Iterations 11
smoothSolver:  Solving for Uy, Initial residual = 0, Final residual = 0, No Iterations 0
amgxPCG(skeleton): constructed config="system/amgx.json"
amgxPCG(skeleton): NOT solving; residual=3.53629e-06
amgxPCG:  Solving for p, Initial residual = 0, Final residual = 3.53629e-06, No Iterations 0
time step continuity errors : sum local = 0.0291238, global = 0, cumulative = 1.01644e-18
amgxPCG(skeleton): constructed config="system/amgx.json"
amgxPCG(skeleton): NOT solving; residual=3.53629e-06
amgxPCG:  Solving for p, Initial residual = 0, Final residual = 3.53629e-06, No Iterations 0
time step continuity errors : sum local = 0.029124, global = 0, cumulative = 1.01644e-18
ExecutionTime = 0.016471 s  ClockTime = 0 s

Time = 0.11s

Courant Number mean: 0.214512 max: 0.940788
smoothSolver:  Solving for Ux, Initial residual = 0.00171699, Final residual = 7.43603e-06, No Iterations 11
smoothSolver:  Solving for Uy, Initial residual = 0, Final residual = 0, No Iterations 0
amgxPCG(skeleton): constructed config="system/amgx.json"
amgxPCG(skeleton): NOT solving; residual=3.54497e-06
amgxPCG:  Solving for p, Initial residual = 0, Final residual = 3.54497e-06, No Iterations 0
time step continuity errors : sum local = 0.0293659, global = 0, cumulative = 1.01644e-18
amgxPCG(skeleton): constructed config="system/amgx.json"
amgxPCG(skeleton): NOT solving; residual=3.54498e-06
amgxPCG:  Solving for p, Initial residual = 0, Final residual = 3.54498e-06, No Iterations 0
time step continuity errors : sum local = 0.029366, global = 0, cumulative = 1.01644e-18
ExecutionTime = 0.017022 s  ClockTime = 0 s

Time = 0.115s

Courant Number mean: 0.215966 max: 0.941093
smoothSolver:  Solving for Ux, Initial residual = 0.00152314, Final residual = 6.59151e-06, No Iterations 11
smoothSolver:  Solving for Uy, Initial residual = 0, Final residual = 0, No Iterations 0
amgxPCG(skeleton): constructed config="system/amgx.json"
amgxPCG(skeleton): NOT solving; residual=3.55262e-06
amgxPCG:  Solving for p, Initial residual = 0, Final residual = 3.55262e-06, No Iterations 0
time step continuity errors : sum local = 0.0295813, global = 0, cumulative = 1.01644e-18
amgxPCG(skeleton): constructed config="system/amgx.json"
amgxPCG(skeleton): NOT solving; residual=3.55262e-06
amgxPCG:  Solving for p, Initial residual = 0, Final residual = 3.55262e-06, No Iterations 0
time step continuity errors : sum local = 0.0295814, global = 0, cumulative = 1.01644e-18
ExecutionTime = 0.017386 s  ClockTime = 0 s

Time = 0.12s

Courant Number mean: 0.217257 max: 0.941353
smoothSolver:  Solving for Ux, Initial residual = 0.00135125, Final residual = 9.5588e-06, No Iterations 10
smoothSolver:  Solving for Uy, Initial residual = 0, Final residual = 0, No Iterations 0
amgxPCG(skeleton): constructed config="system/amgx.json"
amgxPCG(skeleton): NOT solving; residual=3.55935e-06
amgxPCG:  Solving for p, Initial residual = 0, Final residual = 3.55935e-06, No Iterations 0
time step continuity errors : sum local = 0.029772, global = 0, cumulative = 1.01644e-18
amgxPCG(skeleton): constructed config="system/amgx.json"
amgxPCG(skeleton): NOT solving; residual=3.55935e-06
amgxPCG:  Solving for p, Initial residual = 0, Final residual = 3.55935e-06, No Iterations 0
time step continuity errors : sum local = 0.0297722, global = 0, cumulative = 1.01644e-18
ExecutionTime = 0.017693 s  ClockTime = 0 s

Time = 0.125s

Courant Number mean: 0.218402 max: 0.941575
smoothSolver:  Solving for Ux, Initial residual = 0.00119911, Final residual = 8.47723e-06, No Iterations 10
smoothSolver:  Solving for Uy, Initial residual = 0, Final residual = 0, No Iterations 0
amgxPCG(skeleton): constructed config="system/amgx.json"
amgxPCG(skeleton): NOT solving; residual=3.56528e-06
amgxPCG:  Solving for p, Initial residual = 0, Final residual = 3.56528e-06, No Iterations 0
time step continuity errors : sum local = 0.0299414, global = 0, cumulative = 1.01644e-18
amgxPCG(skeleton): constructed config="system/amgx.json"
amgxPCG(skeleton): NOT solving; residual=3.56528e-06
amgxPCG:  Solving for p, Initial residual = 0, Final residual = 3.56528e-06, No Iterations 0
time step continuity errors : sum local = 0.0299415, global = 0, cumulative = 1.01644e-18
ExecutionTime = 0.017978 s  ClockTime = 0 s

Time = 0.13s

Courant Number mean: 0.219418 max: 0.941767
smoothSolver:  Solving for Ux, Initial residual = 0.00106411, Final residual = 7.51841e-06, No Iterations 10
smoothSolver:  Solving for Uy, Initial residual = 0, Final residual = 0, No Iterations 0
amgxPCG(skeleton): constructed config="system/amgx.json"
amgxPCG(skeleton): NOT solving; residual=3.57051e-06
amgxPCG:  Solving for p, Initial residual = 0, Final residual = 3.57051e-06, No Iterations 0
time step continuity errors : sum local = 0.0300925, global = -3.38813e-19, cumulative = 6.77626e-19
amgxPCG(skeleton): constructed config="system/amgx.json"
amgxPCG(skeleton): NOT solving; residual=3.57052e-06
amgxPCG:  Solving for p, Initial residual = 0, Final residual = 3.57052e-06, No Iterations 0
time step continuity errors : sum local = 0.0300927, global = -3.38813e-19, cumulative = 3.38813e-19
ExecutionTime = 0.018322 s  ClockTime = 0 s

Time = 0.135s

Courant Number mean: 0.22032 max: 0.941932
smoothSolver:  Solving for Ux, Initial residual = 0.000944318, Final residual = 6.66825e-06, No Iterations 10
smoothSolver:  Solving for Uy, Initial residual = 0, Final residual = 0, No Iterations 0
amgxPCG(skeleton): constructed config="system/amgx.json"
amgxPCG(skeleton): NOT solving; residual=3.57513e-06
amgxPCG:  Solving for p, Initial residual = 0, Final residual = 3.57513e-06, No Iterations 0
time step continuity errors : sum local = 0.0302268, global = 0, cumulative = 3.38813e-19
amgxPCG(skeleton): constructed config="system/amgx.json"
amgxPCG(skeleton): NOT solving; residual=3.57514e-06
amgxPCG:  Solving for p, Initial residual = 0, Final residual = 3.57514e-06, No Iterations 0
time step continuity errors : sum local = 0.0302269, global = 0, cumulative = 3.38813e-19
ExecutionTime = 0.018689 s  ClockTime = 0 s

Time = 0.14s

Courant Number mean: 0.221121 max: 0.942074
smoothSolver:  Solving for Ux, Initial residual = 0.000837998, Final residual = 9.67936e-06, No Iterations 9
smoothSolver:  Solving for Uy, Initial residual = 0, Final residual = 0, No Iterations 0
amgxPCG(skeleton): constructed config="system/amgx.json"
amgxPCG(skeleton): NOT solving; residual=3.5792e-06
amgxPCG:  Solving for p, Initial residual = 0, Final residual = 3.5792e-06, No Iterations 0
time step continuity errors : sum local = 0.0303455, global = 3.38813e-19, cumulative = 6.77626e-19
amgxPCG(skeleton): constructed config="system/amgx.json"
amgxPCG(skeleton): NOT solving; residual=3.57921e-06
amgxPCG:  Solving for p, Initial residual = 0, Final residual = 3.57921e-06, No Iterations 0
time step continuity errors : sum local = 0.0303456, global = 0, cumulative = 6.77626e-19
ExecutionTime = 0.019048 s  ClockTime = 0 s

Time = 0.145s

Courant Number mean: 0.221829 max: 0.942198
smoothSolver:  Solving for Ux, Initial residual = 0.000743936, Final residual = 8.58928e-06, No Iterations 9
smoothSolver:  Solving for Uy, Initial residual = 0, Final residual = 0, No Iterations 0
amgxPCG(skeleton): constructed config="system/amgx.json"
amgxPCG(skeleton): NOT solving; residual=3.5828e-06
amgxPCG:  Solving for p, Initial residual = 0, Final residual = 3.5828e-06, No Iterations 0
time step continuity errors : sum local = 0.0304511, global = 0, cumulative = 6.77626e-19
amgxPCG(skeleton): constructed config="system/amgx.json"
amgxPCG(skeleton): NOT solving; residual=3.5828e-06
amgxPCG:  Solving for p, Initial residual = 0, Final residual = 3.5828e-06, No Iterations 0
time step continuity errors : sum local = 0.0304513, global = 3.38813e-19, cumulative = 1.01644e-18
ExecutionTime = 0.019376 s  ClockTime = 0 s

Time = 0.15s

Courant Number mean: 0.222459 max: 0.942305
smoothSolver:  Solving for Ux, Initial residual = 0.000660415, Final residual = 7.62201e-06, No Iterations 9
smoothSolver:  Solving for Uy, Initial residual = 0, Final residual = 0, No Iterations 0
amgxPCG(skeleton): constructed config="system/amgx.json"
amgxPCG(skeleton): NOT solving; residual=3.58598e-06
amgxPCG:  Solving for p, Initial residual = 0, Final residual = 3.58598e-06, No Iterations 0
time step continuity errors : sum local = 0.0305451, global = 0, cumulative = 1.01644e-18
amgxPCG(skeleton): constructed config="system/amgx.json"
amgxPCG(skeleton): NOT solving; residual=3.58598e-06
amgxPCG:  Solving for p, Initial residual = 0, Final residual = 3.58598e-06, No Iterations 0
time step continuity errors : sum local = 0.0305452, global = 0, cumulative = 1.01644e-18
ExecutionTime = 0.019694 s  ClockTime = 0 s

Time = 0.155s

Courant Number mean: 0.223018 max: 0.942399
smoothSolver:  Solving for Ux, Initial residual = 0.000586257, Final residual = 6.76366e-06, No Iterations 9
smoothSolver:  Solving for Uy, Initial residual = 0, Final residual = 0, No Iterations 0
amgxPCG(skeleton): constructed config="system/amgx.json"
amgxPCG(skeleton): NOT solving; residual=3.5888e-06
amgxPCG:  Solving for p, Initial residual = 0, Final residual = 3.5888e-06, No Iterations 0
time step continuity errors : sum local = 0.0306286, global = 0, cumulative = 1.01644e-18
amgxPCG(skeleton): constructed config="system/amgx.json"
amgxPCG(skeleton): NOT solving; residual=3.5888e-06
amgxPCG:  Solving for p, Initial residual = 0, Final residual = 3.5888e-06, No Iterations 0
time step continuity errors : sum local = 0.0306287, global = 0, cumulative = 1.01644e-18
ExecutionTime = 0.020023 s  ClockTime = 0 s

Time = 0.16s

Courant Number mean: 0.223514 max: 0.94248
smoothSolver:  Solving for Ux, Initial residual = 0.00052041, Final residual = 9.82714e-06, No Iterations 8
smoothSolver:  Solving for Uy, Initial residual = 0, Final residual = 0, No Iterations 0
amgxPCG(skeleton): constructed config="system/amgx.json"
amgxPCG(skeleton): NOT solving; residual=3.59127e-06
amgxPCG:  Solving for p, Initial residual = 0, Final residual = 3.59127e-06, No Iterations 0
time step continuity errors : sum local = 0.0307022, global = 0, cumulative = 1.01644e-18
amgxPCG(skeleton): constructed config="system/amgx.json"
amgxPCG(skeleton): NOT solving; residual=3.59128e-06
amgxPCG:  Solving for p, Initial residual = 0, Final residual = 3.59128e-06, No Iterations 0
time step continuity errors : sum local = 0.0307024, global = 0, cumulative = 1.01644e-18
ExecutionTime = 0.020391 s  ClockTime = 0 s

Time = 0.165s

Courant Number mean: 0.223952 max: 0.942552
smoothSolver:  Solving for Ux, Initial residual = 0.000462251, Final residual = 8.7268e-06, No Iterations 8
smoothSolver:  Solving for Uy, Initial residual = 0, Final residual = 0, No Iterations 0
amgxPCG(skeleton): constructed config="system/amgx.json"
amgxPCG(skeleton): NOT solving; residual=3.59347e-06
amgxPCG:  Solving for p, Initial residual = 0, Final residual = 3.59347e-06, No Iterations 0
time step continuity errors : sum local = 0.0307677, global = 0, cumulative = 1.01644e-18
amgxPCG(skeleton): constructed config="system/amgx.json"
amgxPCG(skeleton): NOT solving; residual=3.59348e-06
amgxPCG:  Solving for p, Initial residual = 0, Final residual = 3.59348e-06, No Iterations 0
time step continuity errors : sum local = 0.0307678, global = 0, cumulative = 1.01644e-18
ExecutionTime = 0.02075 s  ClockTime = 0 s

Time = 0.17s

Courant Number mean: 0.224341 max: 0.942614
smoothSolver:  Solving for Ux, Initial residual = 0.000410582, Final residual = 7.74963e-06, No Iterations 8
smoothSolver:  Solving for Uy, Initial residual = 0, Final residual = 0, No Iterations 0
amgxPCG(skeleton): constructed config="system/amgx.json"
amgxPCG(skeleton): NOT solving; residual=3.59542e-06
amgxPCG:  Solving for p, Initial residual = 0, Final residual = 3.59542e-06, No Iterations 0
time step continuity errors : sum local = 0.0308258, global = -3.38813e-19, cumulative = 6.77626e-19
amgxPCG(skeleton): constructed config="system/amgx.json"
amgxPCG(skeleton): NOT solving; residual=3.59542e-06
amgxPCG:  Solving for p, Initial residual = 0, Final residual = 3.59542e-06, No Iterations 0
time step continuity errors : sum local = 0.030826, global = 0, cumulative = 6.77626e-19
ExecutionTime = 0.021083 s  ClockTime = 0 s

Time = 0.175s

Courant Number mean: 0.224687 max: 0.942669
smoothSolver:  Solving for Ux, Initial residual = 0.000364681, Final residual = 6.8818e-06, No Iterations 8
smoothSolver:  Solving for Uy, Initial residual = 0, Final residual = 0, No Iterations 0
amgxPCG(skeleton): constructed config="system/amgx.json"
amgxPCG(skeleton): NOT solving; residual=3.59714e-06
amgxPCG:  Solving for p, Initial residual = 0, Final residual = 3.59714e-06, No Iterations 0
time step continuity errors : sum local = 0.0308775, global = 0, cumulative = 6.77626e-19
amgxPCG(skeleton): constructed config="system/amgx.json"
amgxPCG(skeleton): NOT solving; residual=3.59715e-06
amgxPCG:  Solving for p, Initial residual = 0, Final residual = 3.59715e-06, No Iterations 0
time step continuity errors : sum local = 0.0308776, global = 0, cumulative = 6.77626e-19
ExecutionTime = 0.021382 s  ClockTime = 0 s

Time = 0.18s

Courant Number mean: 0.224994 max: 0.942717
smoothSolver:  Solving for Ux, Initial residual = 0.000323904, Final residual = 6.11107e-06, No Iterations 8
smoothSolver:  Solving for Uy, Initial residual = 0, Final residual = 0, No Iterations 0
amgxPCG(skeleton): constructed config="system/amgx.json"
amgxPCG(skeleton): NOT solving; residual=3.59867e-06
amgxPCG:  Solving for p, Initial residual = 0, Final residual = 3.59867e-06, No Iterations 0
time step continuity errors : sum local = 0.0309234, global = 0, cumulative = 6.77626e-19
amgxPCG(skeleton): constructed config="system/amgx.json"
amgxPCG(skeleton): NOT solving; residual=3.59868e-06
amgxPCG:  Solving for p, Initial residual = 0, Final residual = 3.59868e-06, No Iterations 0
time step continuity errors : sum local = 0.0309235, global = 3.38813e-19, cumulative = 1.01644e-18
ExecutionTime = 0.021705 s  ClockTime = 0 s

Time = 0.185s

Courant Number mean: 0.225267 max: 0.94276
smoothSolver:  Solving for Ux, Initial residual = 0.00028768, Final residual = 8.88951e-06, No Iterations 7
smoothSolver:  Solving for Uy, Initial residual = 0, Final residual = 0, No Iterations 0
amgxPCG(skeleton): constructed config="system/amgx.json"
amgxPCG(skeleton): NOT solving; residual=3.60002e-06
amgxPCG:  Solving for p, Initial residual = 0, Final residual = 3.60002e-06, No Iterations 0
time step continuity errors : sum local = 0.0309637, global = 0, cumulative = 1.01644e-18
amgxPCG(skeleton): constructed config="system/amgx.json"
amgxPCG(skeleton): NOT solving; residual=3.60002e-06
amgxPCG:  Solving for p, Initial residual = 0, Final residual = 3.60002e-06, No Iterations 0
time step continuity errors : sum local = 0.0309638, global = 0, cumulative = 1.01644e-18
ExecutionTime = 0.022015 s  ClockTime = 0 s

Time = 0.19s

Courant Number mean: 0.225507 max: 0.942797
smoothSolver:  Solving for Ux, Initial residual = 0.00025578, Final residual = 7.90308e-06, No Iterations 7
smoothSolver:  Solving for Uy, Initial residual = 0, Final residual = 0, No Iterations 0
amgxPCG(skeleton): constructed config="system/amgx.json"
amgxPCG(skeleton): NOT solving; residual=3.60121e-06
amgxPCG:  Solving for p, Initial residual = 0, Final residual = 3.60121e-06, No Iterations 0
time step continuity errors : sum local = 0.0309996, global = 0, cumulative = 1.01644e-18
amgxPCG(skeleton): constructed config="system/amgx.json"
amgxPCG(skeleton): NOT solving; residual=3.60122e-06
amgxPCG:  Solving for p, Initial residual = 0, Final residual = 3.60122e-06, No Iterations 0
time step continuity errors : sum local = 0.0309997, global = -3.38813e-19, cumulative = 6.77626e-19
ExecutionTime = 0.022341 s  ClockTime = 0 s

Time = 0.195s

Courant Number mean: 0.22572 max: 0.94283
smoothSolver:  Solving for Ux, Initial residual = 0.000227417, Final residual = 7.02612e-06, No Iterations 7
smoothSolver:  Solving for Uy, Initial residual = 0, Final residual = 0, No Iterations 0
amgxPCG(skeleton): constructed config="system/amgx.json"
amgxPCG(skeleton): NOT solving; residual=3.60227e-06
amgxPCG:  Solving for p, Initial residual = 0, Final residual = 3.60227e-06, No Iterations 0
time step continuity errors : sum local = 0.0310315, global = 0, cumulative = 6.77626e-19
amgxPCG(skeleton): constructed config="system/amgx.json"
amgxPCG(skeleton): NOT solving; residual=3.60228e-06
amgxPCG:  Solving for p, Initial residual = 0, Final residual = 3.60228e-06, No Iterations 0
time step continuity errors : sum local = 0.0310316, global = -3.38813e-19, cumulative = 3.38813e-19
ExecutionTime = 0.022668 s  ClockTime = 0 s

Time = 0.2s

Courant Number mean: 0.22591 max: 0.942859
smoothSolver:  Solving for Ux, Initial residual = 0.000202198, Final residual = 6.24645e-06, No Iterations 7
smoothSolver:  Solving for Uy, Initial residual = 0, Final residual = 0, No Iterations 0
amgxPCG(skeleton): constructed config="system/amgx.json"
amgxPCG(skeleton): NOT solving; residual=3.60322e-06
amgxPCG:  Solving for p, Initial residual = 0, Final residual = 3.60322e-06, No Iterations 0
time step continuity errors : sum local = 0.0310599, global = 3.38813e-19, cumulative = 6.77626e-19
amgxPCG(skeleton): constructed config="system/amgx.json"
amgxPCG(skeleton): NOT solving; residual=3.60322e-06
amgxPCG:  Solving for p, Initial residual = 0, Final residual = 3.60322e-06, No Iterations 0
time step continuity errors : sum local = 0.03106, global = -3.38813e-19, cumulative = 3.38813e-19
ExecutionTime = 0.023632 s  ClockTime = 0 s

Time = 0.205s

Courant Number mean: 0.226079 max: 0.942885
smoothSolver:  Solving for Ux, Initial residual = 0.000179776, Final residual = 9.10164e-06, No Iterations 6
smoothSolver:  Solving for Uy, Initial residual = 0, Final residual = 0, No Iterations 0
amgxPCG(skeleton): constructed config="system/amgx.json"
amgxPCG(skeleton): NOT solving; residual=3.60404e-06
amgxPCG:  Solving for p, Initial residual = 0, Final residual = 3.60404e-06, No Iterations 0
time step continuity errors : sum local = 0.0310847, global = 3.38813e-19, cumulative = 6.77626e-19
amgxPCG(skeleton): constructed config="system/amgx.json"
amgxPCG(skeleton): NOT solving; residual=3.60405e-06
amgxPCG:  Solving for p, Initial residual = 0, Final residual = 3.60405e-06, No Iterations 0
time step continuity errors : sum local = 0.0310848, global = 0, cumulative = 6.77626e-19
ExecutionTime = 0.024008 s  ClockTime = 0 s

Time = 0.21s

Courant Number mean: 0.226227 max: 0.942907
smoothSolver:  Solving for Ux, Initial residual = 0.000160128, Final residual = 8.10705e-06, No Iterations 6
smoothSolver:  Solving for Uy, Initial residual = 0, Final residual = 0, No Iterations 0
amgxPCG(skeleton): constructed config="system/amgx.json"
amgxPCG(skeleton): NOT solving; residual=3.60478e-06
amgxPCG:  Solving for p, Initial residual = 0, Final residual = 3.60478e-06, No Iterations 0
time step continuity errors : sum local = 0.0311068, global = 0, cumulative = 6.77626e-19
amgxPCG(skeleton): constructed config="system/amgx.json"
amgxPCG(skeleton): NOT solving; residual=3.60478e-06
amgxPCG:  Solving for p, Initial residual = 0, Final residual = 3.60478e-06, No Iterations 0
time step continuity errors : sum local = 0.031107, global = -3.38813e-19, cumulative = 3.38813e-19
ExecutionTime = 0.024359 s  ClockTime = 0 s

Time = 0.215s

Courant Number mean: 0.226358 max: 0.942927
smoothSolver:  Solving for Ux, Initial residual = 0.00014263, Final residual = 7.22127e-06, No Iterations 6
smoothSolver:  Solving for Uy, Initial residual = 0, Final residual = 0, No Iterations 0
amgxPCG(skeleton): constructed config="system/amgx.json"
amgxPCG(skeleton): NOT solving; residual=3.60543e-06
amgxPCG:  Solving for p, Initial residual = 0, Final residual = 3.60543e-06, No Iterations 0
time step continuity errors : sum local = 0.0311266, global = 0, cumulative = 3.38813e-19
amgxPCG(skeleton): constructed config="system/amgx.json"
amgxPCG(skeleton): NOT solving; residual=3.60543e-06
amgxPCG:  Solving for p, Initial residual = 0, Final residual = 3.60543e-06, No Iterations 0
time step continuity errors : sum local = 0.0311267, global = 0, cumulative = 3.38813e-19
ExecutionTime = 0.024702 s  ClockTime = 0 s

Time = 0.22s

Courant Number mean: 0.226476 max: 0.942944
smoothSolver:  Solving for Ux, Initial residual = 0.000127048, Final residual = 6.43232e-06, No Iterations 6
smoothSolver:  Solving for Uy, Initial residual = 0, Final residual = 0, No Iterations 0
amgxPCG(skeleton): constructed config="system/amgx.json"
amgxPCG(skeleton): NOT solving; residual=3.60601e-06
amgxPCG:  Solving for p, Initial residual = 0, Final residual = 3.60601e-06, No Iterations 0
time step continuity errors : sum local = 0.0311441, global = -3.38813e-19, cumulative = -9.62965e-35
amgxPCG(skeleton): constructed config="system/amgx.json"
amgxPCG(skeleton): NOT solving; residual=3.60601e-06
amgxPCG:  Solving for p, Initial residual = 0, Final residual = 3.60601e-06, No Iterations 0
time step continuity errors : sum local = 0.0311442, global = -3.38813e-19, cumulative = -3.38813e-19
ExecutionTime = 0.025022 s  ClockTime = 0 s

Time = 0.225s

Courant Number mean: 0.22658 max: 0.94296
smoothSolver:  Solving for Ux, Initial residual = 0.00011317, Final residual = 9.39598e-06, No Iterations 5
smoothSolver:  Solving for Uy, Initial residual = 0, Final residual = 0, No Iterations 0
amgxPCG(skeleton): constructed config="system/amgx.json"
amgxPCG(skeleton): NOT solving; residual=3.60651e-06
amgxPCG:  Solving for p, Initial residual = 0, Final residual = 3.60651e-06, No Iterations 0
time step continuity errors : sum local = 0.0311593, global = 0, cumulative = -3.38813e-19
amgxPCG(skeleton): constructed config="system/amgx.json"
amgxPCG(skeleton): NOT solving; residual=3.60652e-06
amgxPCG:  Solving for p, Initial residual = 0, Final residual = 3.60652e-06, No Iterations 0
time step continuity errors : sum local = 0.0311594, global = 0, cumulative = -3.38813e-19
ExecutionTime = 0.025335 s  ClockTime = 0 s

Time = 0.23s

Courant Number mean: 0.226671 max: 0.942974
smoothSolver:  Solving for Ux, Initial residual = 0.000101111, Final residual = 8.39556e-06, No Iterations 5
smoothSolver:  Solving for Uy, Initial residual = 0, Final residual = 0, No Iterations 0
amgxPCG(skeleton): constructed config="system/amgx.json"
amgxPCG(skeleton): NOT solving; residual=3.60697e-06
amgxPCG:  Solving for p, Initial residual = 0, Final residual = 3.60697e-06, No Iterations 0
time step continuity errors : sum local = 0.0311729, global = 0, cumulative = -3.38813e-19
amgxPCG(skeleton): constructed config="system/amgx.json"
amgxPCG(skeleton): NOT solving; residual=3.60697e-06
amgxPCG:  Solving for p, Initial residual = 0, Final residual = 3.60697e-06, No Iterations 0
time step continuity errors : sum local = 0.0311731, global = 0, cumulative = -3.38813e-19
ExecutionTime = 0.02563 s  ClockTime = 0 s

Time = 0.235s

Courant Number mean: 0.226752 max: 0.942986
smoothSolver:  Solving for Ux, Initial residual = 9.03405e-05, Final residual = 7.50198e-06, No Iterations 5
smoothSolver:  Solving for Uy, Initial residual = 0, Final residual = 0, No Iterations 0
amgxPCG(skeleton): constructed config="system/amgx.json"
amgxPCG(skeleton): NOT solving; residual=3.60737e-06
amgxPCG:  Solving for p, Initial residual = 0, Final residual = 3.60737e-06, No Iterations 0
time step continuity errors : sum local = 0.0311851, global = 0, cumulative = -3.38813e-19
amgxPCG(skeleton): constructed config="system/amgx.json"
amgxPCG(skeleton): NOT solving; residual=3.60737e-06
amgxPCG:  Solving for p, Initial residual = 0, Final residual = 3.60737e-06, No Iterations 0
time step continuity errors : sum local = 0.0311852, global = 0, cumulative = -3.38813e-19
ExecutionTime = 0.025947 s  ClockTime = 0 s

Time = 0.24s

Courant Number mean: 0.226824 max: 0.942996
smoothSolver:  Solving for Ux, Initial residual = 8.07221e-05, Final residual = 6.7037e-06, No Iterations 5
smoothSolver:  Solving for Uy, Initial residual = 0, Final residual = 0, No Iterations 0
amgxPCG(skeleton): constructed config="system/amgx.json"
amgxPCG(skeleton): NOT solving; residual=3.60773e-06
amgxPCG:  Solving for p, Initial residual = 0, Final residual = 3.60773e-06, No Iterations 0
time step continuity errors : sum local = 0.031196, global = 0, cumulative = -3.38813e-19
amgxPCG(skeleton): constructed config="system/amgx.json"
amgxPCG(skeleton): NOT solving; residual=3.60773e-06
amgxPCG:  Solving for p, Initial residual = 0, Final residual = 3.60773e-06, No Iterations 0
time step continuity errors : sum local = 0.0311961, global = 0, cumulative = -3.38813e-19
ExecutionTime = 0.026311 s  ClockTime = 0 s

Time = 0.245s

Courant Number mean: 0.226889 max: 0.943006
smoothSolver:  Solving for Ux, Initial residual = 7.21311e-05, Final residual = 9.83023e-06, No Iterations 4
smoothSolver:  Solving for Uy, Initial residual = 0, Final residual = 0, No Iterations 0
amgxPCG(skeleton): constructed config="system/amgx.json"
amgxPCG(skeleton): NOT solving; residual=3.60803e-06
amgxPCG:  Solving for p, Initial residual = 0, Final residual = 3.60803e-06, No Iterations 0
time step continuity errors : sum local = 0.0312052, global = 3.38813e-19, cumulative = -9.62965e-35
amgxPCG(skeleton): constructed config="system/amgx.json"
amgxPCG(skeleton): NOT solving; residual=3.60804e-06
amgxPCG:  Solving for p, Initial residual = 0, Final residual = 3.60804e-06, No Iterations 0
time step continuity errors : sum local = 0.0312054, global = 0, cumulative = -9.62965e-35
ExecutionTime = 0.026642 s  ClockTime = 0 s

Time = 0.25s

Courant Number mean: 0.226944 max: 0.943014
smoothSolver:  Solving for Ux, Initial residual = 6.47766e-05, Final residual = 8.82908e-06, No Iterations 4
smoothSolver:  Solving for Uy, Initial residual = 0, Final residual = 0, No Iterations 0
amgxPCG(skeleton): constructed config="system/amgx.json"
amgxPCG(skeleton): NOT solving; residual=3.60831e-06
amgxPCG:  Solving for p, Initial residual = 0, Final residual = 3.60831e-06, No Iterations 0
time step continuity errors : sum local = 0.0312136, global = 0, cumulative = -9.62965e-35
amgxPCG(skeleton): constructed config="system/amgx.json"
amgxPCG(skeleton): NOT solving; residual=3.60831e-06
amgxPCG:  Solving for p, Initial residual = 0, Final residual = 3.60831e-06, No Iterations 0
time step continuity errors : sum local = 0.0312137, global = 0, cumulative = -9.62965e-35
ExecutionTime = 0.027079 s  ClockTime = 0 s

Time = 0.255s

Courant Number mean: 0.226993 max: 0.943022
smoothSolver:  Solving for Ux, Initial residual = 5.81749e-05, Final residual = 7.93053e-06, No Iterations 4
smoothSolver:  Solving for Uy, Initial residual = 0, Final residual = 0, No Iterations 0
amgxPCG(skeleton): constructed config="system/amgx.json"
amgxPCG(skeleton): NOT solving; residual=3.60856e-06
amgxPCG:  Solving for p, Initial residual = 0, Final residual = 3.60856e-06, No Iterations 0
time step continuity errors : sum local = 0.0312211, global = 0, cumulative = -9.62965e-35
amgxPCG(skeleton): constructed config="system/amgx.json"
amgxPCG(skeleton): NOT solving; residual=3.60856e-06
amgxPCG:  Solving for p, Initial residual = 0, Final residual = 3.60856e-06, No Iterations 0
time step continuity errors : sum local = 0.0312212, global = 0, cumulative = -9.62965e-35
ExecutionTime = 0.027399 s  ClockTime = 0 s

Time = 0.26s

Courant Number mean: 0.227038 max: 0.943028
smoothSolver:  Solving for Ux, Initial residual = 5.2251e-05, Final residual = 7.12382e-06, No Iterations 4
smoothSolver:  Solving for Uy, Initial residual = 0, Final residual = 0, No Iterations 0
amgxPCG(skeleton): constructed config="system/amgx.json"
amgxPCG(skeleton): NOT solving; residual=3.60878e-06
amgxPCG:  Solving for p, Initial residual = 0, Final residual = 3.60878e-06, No Iterations 0
time step continuity errors : sum local = 0.0312278, global = -3.38813e-19, cumulative = -3.38813e-19
amgxPCG(skeleton): constructed config="system/amgx.json"
amgxPCG(skeleton): NOT solving; residual=3.60878e-06
amgxPCG:  Solving for p, Initial residual = 0, Final residual = 3.60878e-06, No Iterations 0
time step continuity errors : sum local = 0.0312279, global = 0, cumulative = -3.38813e-19
ExecutionTime = 0.027712 s  ClockTime = 0 s

Time = 0.265s

Courant Number mean: 0.227078 max: 0.943034
smoothSolver:  Solving for Ux, Initial residual = 4.69339e-05, Final residual = 6.39941e-06, No Iterations 4
smoothSolver:  Solving for Uy, Initial residual = 0, Final residual = 0, No Iterations 0
amgxPCG(skeleton): constructed config="system/amgx.json"
amgxPCG(skeleton): NOT solving; residual=3.60898e-06
amgxPCG:  Solving for p, Initial residual = 0, Final residual = 3.60898e-06, No Iterations 0
time step continuity errors : sum local = 0.0312338, global = -3.38813e-19, cumulative = -6.77626e-19
amgxPCG(skeleton): constructed config="system/amgx.json"
amgxPCG(skeleton): NOT solving; residual=3.60898e-06
amgxPCG:  Solving for p, Initial residual = 0, Final residual = 3.60898e-06, No Iterations 0
time step continuity errors : sum local = 0.0312339, global = 3.38813e-19, cumulative = -3.38813e-19
ExecutionTime = 0.028008 s  ClockTime = 0 s

Time = 0.27s

Courant Number mean: 0.227114 max: 0.943039
smoothSolver:  Solving for Ux, Initial residual = 4.21602e-05, Final residual = 9.44083e-06, No Iterations 3
smoothSolver:  Solving for Uy, Initial residual = 0, Final residual = 0, No Iterations 0
amgxPCG(skeleton): constructed config="system/amgx.json"
amgxPCG(skeleton): NOT solving; residual=3.60914e-06
amgxPCG:  Solving for p, Initial residual = 0, Final residual = 3.60914e-06, No Iterations 0
time step continuity errors : sum local = 0.0312388, global = -3.38813e-19, cumulative = -6.77626e-19
amgxPCG(skeleton): constructed config="system/amgx.json"
amgxPCG(skeleton): NOT solving; residual=3.60915e-06
amgxPCG:  Solving for p, Initial residual = 0, Final residual = 3.60915e-06, No Iterations 0
time step continuity errors : sum local = 0.031239, global = -3.38813e-19, cumulative = -1.01644e-18
ExecutionTime = 0.028294 s  ClockTime = 0 s

Time = 0.275s

Courant Number mean: 0.227144 max: 0.943044
smoothSolver:  Solving for Ux, Initial residual = 3.81848e-05, Final residual = 8.55142e-06, No Iterations 3
smoothSolver:  Solving for Uy, Initial residual = 0, Final residual = 0, No Iterations 0
amgxPCG(skeleton): constructed config="system/amgx.json"
amgxPCG(skeleton): NOT solving; residual=3.6093e-06
amgxPCG:  Solving for p, Initial residual = 0, Final residual = 3.6093e-06, No Iterations 0
time step continuity errors : sum local = 0.0312434, global = 0, cumulative = -1.01644e-18
amgxPCG(skeleton): constructed config="system/amgx.json"
amgxPCG(skeleton): NOT solving; residual=3.6093e-06
amgxPCG:  Solving for p, Initial residual = 0, Final residual = 3.6093e-06, No Iterations 0
time step continuity errors : sum local = 0.0312435, global = 3.38813e-19, cumulative = -6.77626e-19
ExecutionTime = 0.028668 s  ClockTime = 0 s

Time = 0.28s

Courant Number mean: 0.227171 max: 0.943048
smoothSolver:  Solving for Ux, Initial residual = 3.45852e-05, Final residual = 7.74675e-06, No Iterations 3
smoothSolver:  Solving for Uy, Initial residual = 0, Final residual = 0, No Iterations 0
amgxPCG(skeleton): constructed config="system/amgx.json"
amgxPCG(skeleton): NOT solving; residual=3.60943e-06
amgxPCG:  Solving for p, Initial residual = 0, Final residual = 3.60943e-06, No Iterations 0
time step continuity errors : sum local = 0.0312475, global = 0, cumulative = -6.77626e-19
amgxPCG(skeleton): constructed config="system/amgx.json"
amgxPCG(skeleton): NOT solving; residual=3.60944e-06
amgxPCG:  Solving for p, Initial residual = 0, Final residual = 3.60944e-06, No Iterations 0
time step continuity errors : sum local = 0.0312476, global = 3.38813e-19, cumulative = -3.38813e-19
ExecutionTime = 0.028991 s  ClockTime = 0 s

Time = 0.285s

Courant Number mean: 0.227195 max: 0.943051
smoothSolver:  Solving for Ux, Initial residual = 3.1329e-05, Final residual = 7.01839e-06, No Iterations 3
smoothSolver:  Solving for Uy, Initial residual = 0, Final residual = 0, No Iterations 0
amgxPCG(skeleton): constructed config="system/amgx.json"
amgxPCG(skeleton): NOT solving; residual=3.60955e-06
amgxPCG:  Solving for p, Initial residual = 0, Final residual = 3.60955e-06, No Iterations 0
time step continuity errors : sum local = 0.0312512, global = 3.38813e-19, cumulative = -9.62965e-35
amgxPCG(skeleton): constructed config="system/amgx.json"
amgxPCG(skeleton): NOT solving; residual=3.60956e-06
amgxPCG:  Solving for p, Initial residual = 0, Final residual = 3.60956e-06, No Iterations 0
time step continuity errors : sum local = 0.0312514, global = 0, cumulative = -9.62965e-35
ExecutionTime = 0.029299 s  ClockTime = 0 s

Time = 0.29s

Courant Number mean: 0.227217 max: 0.943055
smoothSolver:  Solving for Ux, Initial residual = 2.83822e-05, Final residual = 6.3589e-06, No Iterations 3
smoothSolver:  Solving for Uy, Initial residual = 0, Final residual = 0, No Iterations 0
amgxPCG(skeleton): constructed config="system/amgx.json"
amgxPCG(skeleton): NOT solving; residual=3.60967e-06
amgxPCG:  Solving for p, Initial residual = 0, Final residual = 3.60967e-06, No Iterations 0
time step continuity errors : sum local = 0.0312546, global = 0, cumulative = -9.62965e-35
amgxPCG(skeleton): constructed config="system/amgx.json"
amgxPCG(skeleton): NOT solving; residual=3.60967e-06
amgxPCG:  Solving for p, Initial residual = 0, Final residual = 3.60967e-06, No Iterations 0
time step continuity errors : sum local = 0.0312547, global = 0, cumulative = -9.62965e-35
ExecutionTime = 0.029596 s  ClockTime = 0 s

Time = 0.295s

Courant Number mean: 0.227237 max: 0.943058
smoothSolver:  Solving for Ux, Initial residual = 2.57145e-05, Final residual = 9.47049e-06, No Iterations 2
smoothSolver:  Solving for Uy, Initial residual = 0, Final residual = 0, No Iterations 0
amgxPCG(skeleton): constructed config="system/amgx.json"
amgxPCG(skeleton): NOT solving; residual=3.60975e-06
amgxPCG:  Solving for p, Initial residual = 0, Final residual = 3.60975e-06, No Iterations 0
time step continuity errors : sum local = 0.0312572, global = 0, cumulative = -9.62965e-35
amgxPCG(skeleton): constructed config="system/amgx.json"
amgxPCG(skeleton): NOT solving; residual=3.60976e-06
amgxPCG:  Solving for p, Initial residual = 0, Final residual = 3.60976e-06, No Iterations 0
time step continuity errors : sum local = 0.0312574, global = 0, cumulative = -9.62965e-35
ExecutionTime = 0.029989 s  ClockTime = 0 s

Time = 0.3s

Courant Number mean: 0.227253 max: 0.94306
smoothSolver:  Solving for Ux, Initial residual = 2.36157e-05, Final residual = 8.69705e-06, No Iterations 2
smoothSolver:  Solving for Uy, Initial residual = 0, Final residual = 0, No Iterations 0
amgxPCG(skeleton): constructed config="system/amgx.json"
amgxPCG(skeleton): NOT solving; residual=3.60983e-06
amgxPCG:  Solving for p, Initial residual = 0, Final residual = 3.60983e-06, No Iterations 0
time step continuity errors : sum local = 0.0312597, global = -6.77626e-19, cumulative = -6.77626e-19
amgxPCG(skeleton): constructed config="system/amgx.json"
amgxPCG(skeleton): NOT solving; residual=3.60984e-06
amgxPCG:  Solving for p, Initial residual = 0, Final residual = 3.60984e-06, No Iterations 0
time step continuity errors : sum local = 0.0312598, global = 3.38813e-19, cumulative = -3.38813e-19
ExecutionTime = 0.030829 s  ClockTime = 0 s

Time = 0.305s

Courant Number mean: 0.227268 max: 0.943062
smoothSolver:  Solving for Ux, Initial residual = 2.1687e-05, Final residual = 7.98809e-06, No Iterations 2
smoothSolver:  Solving for Uy, Initial residual = 0, Final residual = 0, No Iterations 0
amgxPCG(skeleton): constructed config="system/amgx.json"
amgxPCG(skeleton): NOT solving; residual=3.60991e-06
amgxPCG:  Solving for p, Initial residual = 0, Final residual = 3.60991e-06, No Iterations 0
time step continuity errors : sum local = 0.0312619, global = 3.38813e-19, cumulative = -9.62965e-35
amgxPCG(skeleton): constructed config="system/amgx.json"
amgxPCG(skeleton): NOT solving; residual=3.60991e-06
amgxPCG:  Solving for p, Initial residual = 0, Final residual = 3.60991e-06, No Iterations 0
time step continuity errors : sum local = 0.031262, global = 0, cumulative = -9.62965e-35
ExecutionTime = 0.031194 s  ClockTime = 0 s

Time = 0.31s

Courant Number mean: 0.227281 max: 0.943064
smoothSolver:  Solving for Ux, Initial residual = 1.99187e-05, Final residual = 7.3378e-06, No Iterations 2
smoothSolver:  Solving for Uy, Initial residual = 0, Final residual = 0, No Iterations 0
amgxPCG(skeleton): constructed config="system/amgx.json"
amgxPCG(skeleton): NOT solving; residual=3.60998e-06
amgxPCG:  Solving for p, Initial residual = 0, Final residual = 3.60998e-06, No Iterations 0
time step continuity errors : sum local = 0.031264, global = 0, cumulative = -9.62965e-35
amgxPCG(skeleton): constructed config="system/amgx.json"
amgxPCG(skeleton): NOT solving; residual=3.60998e-06
amgxPCG:  Solving for p, Initial residual = 0, Final residual = 3.60998e-06, No Iterations 0
time step continuity errors : sum local = 0.0312641, global = 0, cumulative = -9.62965e-35
ExecutionTime = 0.031524 s  ClockTime = 0 s

Time = 0.315s

Courant Number mean: 0.227293 max: 0.943066
smoothSolver:  Solving for Ux, Initial residual = 1.82968e-05, Final residual = 6.74103e-06, No Iterations 2
smoothSolver:  Solving for Uy, Initial residual = 0, Final residual = 0, No Iterations 0
amgxPCG(skeleton): constructed config="system/amgx.json"
amgxPCG(skeleton): NOT solving; residual=3.61004e-06
amgxPCG:  Solving for p, Initial residual = 0, Final residual = 3.61004e-06, No Iterations 0
time step continuity errors : sum local = 0.0312659, global = 0, cumulative = -9.62965e-35
amgxPCG(skeleton): constructed config="system/amgx.json"
amgxPCG(skeleton): NOT solving; residual=3.61004e-06
amgxPCG:  Solving for p, Initial residual = 0, Final residual = 3.61004e-06, No Iterations 0
time step continuity errors : sum local = 0.031266, global = 0, cumulative = -9.62965e-35
ExecutionTime = 0.031835 s  ClockTime = 0 s

Time = 0.32s

Courant Number mean: 0.227304 max: 0.943067
smoothSolver:  Solving for Ux, Initial residual = 1.68085e-05, Final residual = 6.19318e-06, No Iterations 2
smoothSolver:  Solving for Uy, Initial residual = 0, Final residual = 0, No Iterations 0
amgxPCG(skeleton): constructed config="system/amgx.json"
amgxPCG(skeleton): NOT solving; residual=3.6101e-06
amgxPCG:  Solving for p, Initial residual = 0, Final residual = 3.6101e-06, No Iterations 0
time step continuity errors : sum local = 0.0312676, global = -3.38813e-19, cumulative = -3.38813e-19
amgxPCG(skeleton): constructed config="system/amgx.json"
amgxPCG(skeleton): NOT solving; residual=3.6101e-06
amgxPCG:  Solving for p, Initial residual = 0, Final residual = 3.6101e-06, No Iterations 0
time step continuity errors : sum local = 0.0312677, global = 0, cumulative = -3.38813e-19
ExecutionTime = 0.032093 s  ClockTime = 0 s

Time = 0.325s

Courant Number mean: 0.227315 max: 0.943069
smoothSolver:  Solving for Ux, Initial residual = 1.54423e-05, Final residual = 9.36353e-06, No Iterations 1
smoothSolver:  Solving for Uy, Initial residual = 0, Final residual = 0, No Iterations 0
amgxPCG(skeleton): constructed config="system/amgx.json"
amgxPCG(skeleton): NOT solving; residual=3.61013e-06
amgxPCG:  Solving for p, Initial residual = 0, Final residual = 3.61013e-06, No Iterations 0
time step continuity errors : sum local = 0.0312688, global = 0, cumulative = -3.38813e-19
amgxPCG(skeleton): constructed config="system/amgx.json"
amgxPCG(skeleton): NOT solving; residual=3.61014e-06
amgxPCG:  Solving for p, Initial residual = 0, Final residual = 3.61014e-06, No Iterations 0
time step continuity errors : sum local = 0.0312689, global = 0, cumulative = -3.38813e-19
ExecutionTime = 0.03239 s  ClockTime = 0 s

Time = 0.33s

Courant Number mean: 0.227322 max: 0.94307
smoothSolver:  Solving for Ux, Initial residual = 1.45065e-05, Final residual = 8.79285e-06, No Iterations 1
smoothSolver:  Solving for Uy, Initial residual = 0, Final residual = 0, No Iterations 0
amgxPCG(skeleton): constructed config="system/amgx.json"
amgxPCG(skeleton): NOT solving; residual=3.61017e-06
amgxPCG:  Solving for p, Initial residual = 0, Final residual = 3.61017e-06, No Iterations 0
time step continuity errors : sum local = 0.0312699, global = 0, cumulative = -3.38813e-19
amgxPCG(skeleton): constructed config="system/amgx.json"
amgxPCG(skeleton): NOT solving; residual=3.61017e-06
amgxPCG:  Solving for p, Initial residual = 0, Final residual = 3.61017e-06, No Iterations 0
time step continuity errors : sum local = 0.03127, global = 0, cumulative = -3.38813e-19
ExecutionTime = 0.032686 s  ClockTime = 0 s

Time = 0.335s

Courant Number mean: 0.227328 max: 0.943071
smoothSolver:  Solving for Ux, Initial residual = 1.36232e-05, Final residual = 8.2579e-06, No Iterations 1
smoothSolver:  Solving for Uy, Initial residual = 0, Final residual = 0, No Iterations 0
amgxPCG(skeleton): constructed config="system/amgx.json"
amgxPCG(skeleton): NOT solving; residual=3.61021e-06
amgxPCG:  Solving for p, Initial residual = 0, Final residual = 3.61021e-06, No Iterations 0
time step continuity errors : sum local = 0.0312709, global = 0, cumulative = -3.38813e-19
amgxPCG(skeleton): constructed config="system/amgx.json"
amgxPCG(skeleton): NOT solving; residual=3.61021e-06
amgxPCG:  Solving for p, Initial residual = 0, Final residual = 3.61021e-06, No Iterations 0
time step continuity errors : sum local = 0.0312711, global = -3.38813e-19, cumulative = -6.77626e-19
ExecutionTime = 0.032975 s  ClockTime = 0 s

Time = 0.34s

Courant Number mean: 0.227335 max: 0.943072
smoothSolver:  Solving for Ux, Initial residual = 1.27948e-05, Final residual = 7.75644e-06, No Iterations 1
smoothSolver:  Solving for Uy, Initial residual = 0, Final residual = 0, No Iterations 0
amgxPCG(skeleton): constructed config="system/amgx.json"
amgxPCG(skeleton): NOT solving; residual=3.61024e-06
amgxPCG:  Solving for p, Initial residual = 0, Final residual = 3.61024e-06, No Iterations 0
time step continuity errors : sum local = 0.0312719, global = 0, cumulative = -6.77626e-19
amgxPCG(skeleton): constructed config="system/amgx.json"
amgxPCG(skeleton): NOT solving; residual=3.61024e-06
amgxPCG:  Solving for p, Initial residual = 0, Final residual = 3.61024e-06, No Iterations 0
time step continuity errors : sum local = 0.0312721, global = 3.38813e-19, cumulative = -3.38813e-19
ExecutionTime = 0.033253 s  ClockTime = 0 s

Time = 0.345s

Courant Number mean: 0.227341 max: 0.943073
smoothSolver:  Solving for Ux, Initial residual = 1.20181e-05, Final residual = 7.28613e-06, No Iterations 1
smoothSolver:  Solving for Uy, Initial residual = 0, Final residual = 0, No Iterations 0
amgxPCG(skeleton): constructed config="system/amgx.json"
amgxPCG(skeleton): NOT solving; residual=3.61027e-06
amgxPCG:  Solving for p, Initial residual = 0, Final residual = 3.61027e-06, No Iterations 0
time step continuity errors : sum local = 0.0312729, global = -6.77626e-19, cumulative = -1.01644e-18
amgxPCG(skeleton): constructed config="system/amgx.json"
amgxPCG(skeleton): NOT solving; residual=3.61027e-06
amgxPCG:  Solving for p, Initial residual = 0, Final residual = 3.61027e-06, No Iterations 0
time step continuity errors : sum local = 0.031273, global = 0, cumulative = -1.01644e-18
ExecutionTime = 0.033539 s  ClockTime = 0 s

Time = 0.35s

Courant Number mean: 0.227346 max: 0.943074
smoothSolver:  Solving for Ux, Initial residual = 1.12896e-05, Final residual = 6.84484e-06, No Iterations 1
smoothSolver:  Solving for Uy, Initial residual = 0, Final residual = 0, No Iterations 0
amgxPCG(skeleton): constructed config="system/amgx.json"
amgxPCG(skeleton): NOT solving; residual=3.6103e-06
amgxPCG:  Solving for p, Initial residual = 0, Final residual = 3.6103e-06, No Iterations 0
time step continuity errors : sum local = 0.0312737, global = 0, cumulative = -1.01644e-18
amgxPCG(skeleton): constructed config="system/amgx.json"
amgxPCG(skeleton): NOT solving; residual=3.6103e-06
amgxPCG:  Solving for p, Initial residual = 0, Final residual = 3.6103e-06, No Iterations 0
time step continuity errors : sum local = 0.0312738, global = 0, cumulative = -1.01644e-18
ExecutionTime = 0.033815 s  ClockTime = 0 s

Time = 0.355s

Courant Number mean: 0.227351 max: 0.943074
smoothSolver:  Solving for Ux, Initial residual = 1.0606e-05, Final residual = 6.43063e-06, No Iterations 1
smoothSolver:  Solving for Uy, Initial residual = 0, Final residual = 0, No Iterations 0
amgxPCG(skeleton): constructed config="system/amgx.json"
amgxPCG(skeleton): NOT solving; residual=3.61032e-06
amgxPCG:  Solving for p, Initial residual = 0, Final residual = 3.61032e-06, No Iterations 0
time step continuity errors : sum local = 0.0312746, global = 0, cumulative = -1.01644e-18
amgxPCG(skeleton): constructed config="system/amgx.json"
amgxPCG(skeleton): NOT solving; residual=3.61033e-06
amgxPCG:  Solving for p, Initial residual = 0, Final residual = 3.61033e-06, No Iterations 0
time step continuity errors : sum local = 0.0312747, global = 0, cumulative = -1.01644e-18
ExecutionTime = 0.034098 s  ClockTime = 0 s

Time = 0.36s

Courant Number mean: 0.227356 max: 0.943075
smoothSolver:  Solving for Ux, Initial residual = 9.96429e-06, Final residual = 9.96429e-06, No Iterations 0
smoothSolver:  Solving for Uy, Initial residual = 0, Final residual = 0, No Iterations 0
amgxPCG(skeleton): constructed config="system/amgx.json"
amgxPCG(skeleton): NOT solving; residual=3.61033e-06
amgxPCG:  Solving for p, Initial residual = 0, Final residual = 3.61033e-06, No Iterations 0
time step continuity errors : sum local = 0.0312748, global = 0, cumulative = -1.01644e-18
amgxPCG(skeleton): constructed config="system/amgx.json"
amgxPCG(skeleton): NOT solving; residual=3.61034e-06
amgxPCG:  Solving for p, Initial residual = 0, Final residual = 3.61034e-06, No Iterations 0
time step continuity errors : sum local = 0.031275, global = 0, cumulative = -1.01644e-18
ExecutionTime = 0.034393 s  ClockTime = 0 s

Time = 0.365s

Courant Number mean: 0.227358 max: 0.943075
smoothSolver:  Solving for Ux, Initial residual = 9.70878e-06, Final residual = 9.70878e-06, No Iterations 0
smoothSolver:  Solving for Uy, Initial residual = 0, Final residual = 0, No Iterations 0
amgxPCG(skeleton): constructed config="system/amgx.json"
amgxPCG(skeleton): NOT solving; residual=3.61034e-06
amgxPCG:  Solving for p, Initial residual = 0, Final residual = 3.61034e-06, No Iterations 0
time step continuity errors : sum local = 0.0312752, global = 0, cumulative = -1.01644e-18
amgxPCG(skeleton): constructed config="system/amgx.json"
amgxPCG(skeleton): NOT solving; residual=3.61035e-06
amgxPCG:  Solving for p, Initial residual = 0, Final residual = 3.61035e-06, No Iterations 0
time step continuity errors : sum local = 0.0312753, global = 0, cumulative = -1.01644e-18
ExecutionTime = 0.034647 s  ClockTime = 0 s

Time = 0.37s

Courant Number mean: 0.22736 max: 0.943076
smoothSolver:  Solving for Ux, Initial residual = 9.4521e-06, Final residual = 9.4521e-06, No Iterations 0
smoothSolver:  Solving for Uy, Initial residual = 0, Final residual = 0, No Iterations 0
amgxPCG(skeleton): constructed config="system/amgx.json"
amgxPCG(skeleton): NOT solving; residual=3.61035e-06
amgxPCG:  Solving for p, Initial residual = 0, Final residual = 3.61035e-06, No Iterations 0
time step continuity errors : sum local = 0.0312755, global = 0, cumulative = -1.01644e-18
amgxPCG(skeleton): constructed config="system/amgx.json"
amgxPCG(skeleton): NOT solving; residual=3.61036e-06
amgxPCG:  Solving for p, Initial residual = 0, Final residual = 3.61036e-06, No Iterations 0
time step continuity errors : sum local = 0.0312756, global = 0, cumulative = -1.01644e-18
ExecutionTime = 0.034952 s  ClockTime = 0 s

Time = 0.375s

Courant Number mean: 0.227362 max: 0.943076
smoothSolver:  Solving for Ux, Initial residual = 9.20068e-06, Final residual = 9.20068e-06, No Iterations 0
smoothSolver:  Solving for Uy, Initial residual = 0, Final residual = 0, No Iterations 0
amgxPCG(skeleton): constructed config="system/amgx.json"
amgxPCG(skeleton): NOT solving; residual=3.61037e-06
amgxPCG:  Solving for p, Initial residual = 0, Final residual = 3.61037e-06, No Iterations 0
time step continuity errors : sum local = 0.0312758, global = -3.38813e-19, cumulative = -1.35525e-18
amgxPCG(skeleton): constructed config="system/amgx.json"
amgxPCG(skeleton): NOT solving; residual=3.61037e-06
amgxPCG:  Solving for p, Initial residual = 0, Final residual = 3.61037e-06, No Iterations 0
time step continuity errors : sum local = 0.0312759, global = -3.38813e-19, cumulative = -1.69407e-18
ExecutionTime = 0.035295 s  ClockTime = 0 s

Time = 0.38s

Courant Number mean: 0.227364 max: 0.943076
smoothSolver:  Solving for Ux, Initial residual = 8.95576e-06, Final residual = 8.95576e-06, No Iterations 0
smoothSolver:  Solving for Uy, Initial residual = 0, Final residual = 0, No Iterations 0
amgxPCG(skeleton): constructed config="system/amgx.json"
amgxPCG(skeleton): NOT solving; residual=3.61038e-06
amgxPCG:  Solving for p, Initial residual = 0, Final residual = 3.61038e-06, No Iterations 0
time step continuity errors : sum local = 0.0312761, global = 0, cumulative = -1.69407e-18
amgxPCG(skeleton): constructed config="system/amgx.json"
amgxPCG(skeleton): NOT solving; residual=3.61038e-06
amgxPCG:  Solving for p, Initial residual = 0, Final residual = 3.61038e-06, No Iterations 0
time step continuity errors : sum local = 0.0312762, global = 0, cumulative = -1.69407e-18
ExecutionTime = 0.035599 s  ClockTime = 0 s

Time = 0.385s

Courant Number mean: 0.227365 max: 0.943076
smoothSolver:  Solving for Ux, Initial residual = 8.71748e-06, Final residual = 8.71748e-06, No Iterations 0
smoothSolver:  Solving for Uy, Initial residual = 0, Final residual = 0, No Iterations 0
amgxPCG(skeleton): constructed config="system/amgx.json"
amgxPCG(skeleton): NOT solving; residual=3.61039e-06
amgxPCG:  Solving for p, Initial residual = 0, Final residual = 3.61039e-06, No Iterations 0
time step continuity errors : sum local = 0.0312764, global = 3.38813e-19, cumulative = -1.35525e-18
amgxPCG(skeleton): constructed config="system/amgx.json"
amgxPCG(skeleton): NOT solving; residual=3.61039e-06
amgxPCG:  Solving for p, Initial residual = 0, Final residual = 3.61039e-06, No Iterations 0
time step continuity errors : sum local = 0.0312765, global = -3.38813e-19, cumulative = -1.69407e-18
ExecutionTime = 0.035901 s  ClockTime = 0 s

Time = 0.39s

Courant Number mean: 0.227367 max: 0.943077
smoothSolver:  Solving for Ux, Initial residual = 8.48574e-06, Final residual = 8.48574e-06, No Iterations 0
smoothSolver:  Solving for Uy, Initial residual = 0, Final residual = 0, No Iterations 0
amgxPCG(skeleton): constructed config="system/amgx.json"
amgxPCG(skeleton): NOT solving; residual=3.61039e-06
amgxPCG:  Solving for p, Initial residual = 0, Final residual = 3.61039e-06, No Iterations 0
time step continuity errors : sum local = 0.0312767, global = 0, cumulative = -1.69407e-18
amgxPCG(skeleton): constructed config="system/amgx.json"
amgxPCG(skeleton): NOT solving; residual=3.6104e-06
amgxPCG:  Solving for p, Initial residual = 0, Final residual = 3.6104e-06, No Iterations 0
time step continuity errors : sum local = 0.0312768, global = 0, cumulative = -1.69407e-18
ExecutionTime = 0.036202 s  ClockTime = 0 s

Time = 0.395s

Courant Number mean: 0.227369 max: 0.943077
smoothSolver:  Solving for Ux, Initial residual = 8.26036e-06, Final residual = 8.26036e-06, No Iterations 0
smoothSolver:  Solving for Uy, Initial residual = 0, Final residual = 0, No Iterations 0
amgxPCG(skeleton): constructed config="system/amgx.json"
amgxPCG(skeleton): NOT solving; residual=3.6104e-06
amgxPCG:  Solving for p, Initial residual = 0, Final residual = 3.6104e-06, No Iterations 0
time step continuity errors : sum local = 0.031277, global = 0, cumulative = -1.69407e-18
amgxPCG(skeleton): constructed config="system/amgx.json"
amgxPCG(skeleton): NOT solving; residual=3.61041e-06
amgxPCG:  Solving for p, Initial residual = 0, Final residual = 3.61041e-06, No Iterations 0
time step continuity errors : sum local = 0.0312771, global = 0, cumulative = -1.69407e-18
ExecutionTime = 0.036499 s  ClockTime = 0 s

Time = 0.4s

Courant Number mean: 0.227371 max: 0.943077
smoothSolver:  Solving for Ux, Initial residual = 8.04114e-06, Final residual = 8.04114e-06, No Iterations 0
smoothSolver:  Solving for Uy, Initial residual = 0, Final residual = 0, No Iterations 0
amgxPCG(skeleton): constructed config="system/amgx.json"
amgxPCG(skeleton): NOT solving; residual=3.61041e-06
amgxPCG:  Solving for p, Initial residual = 0, Final residual = 3.61041e-06, No Iterations 0
time step continuity errors : sum local = 0.0312772, global = 0, cumulative = -1.69407e-18
amgxPCG(skeleton): constructed config="system/amgx.json"
amgxPCG(skeleton): NOT solving; residual=3.61042e-06
amgxPCG:  Solving for p, Initial residual = 0, Final residual = 3.61042e-06, No Iterations 0
time step continuity errors : sum local = 0.0312774, global = 0, cumulative = -1.69407e-18
ExecutionTime = 0.037388 s  ClockTime = 0 s

Time = 0.405s

Courant Number mean: 0.227372 max: 0.943077
smoothSolver:  Solving for Ux, Initial residual = 7.8279e-06, Final residual = 7.8279e-06, No Iterations 0
smoothSolver:  Solving for Uy, Initial residual = 0, Final residual = 0, No Iterations 0
amgxPCG(skeleton): constructed config="system/amgx.json"
amgxPCG(skeleton): NOT solving; residual=3.61042e-06
amgxPCG:  Solving for p, Initial residual = 0, Final residual = 3.61042e-06, No Iterations 0
time step continuity errors : sum local = 0.0312775, global = 0, cumulative = -1.69407e-18
amgxPCG(skeleton): constructed config="system/amgx.json"
amgxPCG(skeleton): NOT solving; residual=3.61043e-06
amgxPCG:  Solving for p, Initial residual = 0, Final residual = 3.61043e-06, No Iterations 0
time step continuity errors : sum local = 0.0312776, global = 0, cumulative = -1.69407e-18
ExecutionTime = 0.037777 s  ClockTime = 0 s

Time = 0.41s

Courant Number mean: 0.227374 max: 0.943078
smoothSolver:  Solving for Ux, Initial residual = 7.62045e-06, Final residual = 7.62045e-06, No Iterations 0
smoothSolver:  Solving for Uy, Initial residual = 0, Final residual = 0, No Iterations 0
amgxPCG(skeleton): constructed config="system/amgx.json"
amgxPCG(skeleton): NOT solving; residual=3.61043e-06
amgxPCG:  Solving for p, Initial residual = 0, Final residual = 3.61043e-06, No Iterations 0
time step continuity errors : sum local = 0.0312778, global = 0, cumulative = -1.69407e-18
amgxPCG(skeleton): constructed config="system/amgx.json"
amgxPCG(skeleton): NOT solving; residual=3.61043e-06
amgxPCG:  Solving for p, Initial residual = 0, Final residual = 3.61043e-06, No Iterations 0
time step continuity errors : sum local = 0.0312779, global = 0, cumulative = -1.69407e-18
ExecutionTime = 0.038066 s  ClockTime = 0 s

Time = 0.415s

Courant Number mean: 0.227375 max: 0.943078
smoothSolver:  Solving for Ux, Initial residual = 7.41863e-06, Final residual = 7.41863e-06, No Iterations 0
smoothSolver:  Solving for Uy, Initial residual = 0, Final residual = 0, No Iterations 0
amgxPCG(skeleton): constructed config="system/amgx.json"
amgxPCG(skeleton): NOT solving; residual=3.61044e-06
amgxPCG:  Solving for p, Initial residual = 0, Final residual = 3.61044e-06, No Iterations 0
time step continuity errors : sum local = 0.031278, global = 0, cumulative = -1.69407e-18
amgxPCG(skeleton): constructed config="system/amgx.json"
amgxPCG(skeleton): NOT solving; residual=3.61044e-06
amgxPCG:  Solving for p, Initial residual = 0, Final residual = 3.61044e-06, No Iterations 0
time step continuity errors : sum local = 0.0312781, global = 0, cumulative = -1.69407e-18
ExecutionTime = 0.03838 s  ClockTime = 0 s

Time = 0.42s

Courant Number mean: 0.227377 max: 0.943078
smoothSolver:  Solving for Ux, Initial residual = 7.22226e-06, Final residual = 7.22226e-06, No Iterations 0
smoothSolver:  Solving for Uy, Initial residual = 0, Final residual = 0, No Iterations 0
amgxPCG(skeleton): constructed config="system/amgx.json"
amgxPCG(skeleton): NOT solving; residual=3.61045e-06
amgxPCG:  Solving for p, Initial residual = 0, Final residual = 3.61045e-06, No Iterations 0
time step continuity errors : sum local = 0.0312783, global = -3.38813e-19, cumulative = -2.03288e-18
amgxPCG(skeleton): constructed config="system/amgx.json"
amgxPCG(skeleton): NOT solving; residual=3.61045e-06
amgxPCG:  Solving for p, Initial residual = 0, Final residual = 3.61045e-06, No Iterations 0
time step continuity errors : sum local = 0.0312784, global = 0, cumulative = -2.03288e-18
ExecutionTime = 0.038678 s  ClockTime = 0 s

Time = 0.425s

Courant Number mean: 0.227378 max: 0.943078
smoothSolver:  Solving for Ux, Initial residual = 7.03118e-06, Final residual = 7.03118e-06, No Iterations 0
smoothSolver:  Solving for Uy, Initial residual = 0, Final residual = 0, No Iterations 0
amgxPCG(skeleton): constructed config="system/amgx.json"
amgxPCG(skeleton): NOT solving; residual=3.61045e-06
amgxPCG:  Solving for p, Initial residual = 0, Final residual = 3.61045e-06, No Iterations 0
time step continuity errors : sum local = 0.0312785, global = 0, cumulative = -2.03288e-18
amgxPCG(skeleton): constructed config="system/amgx.json"
amgxPCG(skeleton): NOT solving; residual=3.61046e-06
amgxPCG:  Solving for p, Initial residual = 0, Final residual = 3.61046e-06, No Iterations 0
time step continuity errors : sum local = 0.0312786, global = 0, cumulative = -2.03288e-18
ExecutionTime = 0.039 s  ClockTime = 0 s

Time = 0.43s

Courant Number mean: 0.22738 max: 0.943079
smoothSolver:  Solving for Ux, Initial residual = 6.84524e-06, Final residual = 6.84524e-06, No Iterations 0
smoothSolver:  Solving for Uy, Initial residual = 0, Final residual = 0, No Iterations 0
amgxPCG(skeleton): constructed config="system/amgx.json"
amgxPCG(skeleton): NOT solving; residual=3.61046e-06
amgxPCG:  Solving for p, Initial residual = 0, Final residual = 3.61046e-06, No Iterations 0
time step continuity errors : sum local = 0.0312787, global = 0, cumulative = -2.03288e-18
amgxPCG(skeleton): constructed config="system/amgx.json"
amgxPCG(skeleton): NOT solving; residual=3.61047e-06
amgxPCG:  Solving for p, Initial residual = 0, Final residual = 3.61047e-06, No Iterations 0
time step continuity errors : sum local = 0.0312789, global = -3.38813e-19, cumulative = -2.37169e-18
ExecutionTime = 0.03929 s  ClockTime = 0 s

Time = 0.435s

Courant Number mean: 0.227381 max: 0.943079
smoothSolver:  Solving for Ux, Initial residual = 6.66429e-06, Final residual = 6.66429e-06, No Iterations 0
smoothSolver:  Solving for Uy, Initial residual = 0, Final residual = 0, No Iterations 0
amgxPCG(skeleton): constructed config="system/amgx.json"
amgxPCG(skeleton): NOT solving; residual=3.61047e-06
amgxPCG:  Solving for p, Initial residual = 0, Final residual = 3.61047e-06, No Iterations 0
time step continuity errors : sum local = 0.031279, global = 0, cumulative = -2.37169e-18
amgxPCG(skeleton): constructed config="system/amgx.json"
amgxPCG(skeleton): NOT solving; residual=3.61047e-06
amgxPCG:  Solving for p, Initial residual = 0, Final residual = 3.61047e-06, No Iterations 0
time step continuity errors : sum local = 0.0312791, global = 3.38813e-19, cumulative = -2.03288e-18
ExecutionTime = 0.039593 s  ClockTime = 0 s

Time = 0.44s

Courant Number mean: 0.227382 max: 0.943079
smoothSolver:  Solving for Ux, Initial residual = 6.48819e-06, Final residual = 6.48819e-06, No Iterations 0
smoothSolver:  Solving for Uy, Initial residual = 0, Final residual = 0, No Iterations 0
amgxPCG(skeleton): constructed config="system/amgx.json"
amgxPCG(skeleton): NOT solving; residual=3.61048e-06
amgxPCG:  Solving for p, Initial residual = 0, Final residual = 3.61048e-06, No Iterations 0
time step continuity errors : sum local = 0.0312792, global = 0, cumulative = -2.03288e-18
amgxPCG(skeleton): constructed config="system/amgx.json"
amgxPCG(skeleton): NOT solving; residual=3.61048e-06
amgxPCG:  Solving for p, Initial residual = 0, Final residual = 3.61048e-06, No Iterations 0
time step continuity errors : sum local = 0.0312793, global = -3.38813e-19, cumulative = -2.37169e-18
ExecutionTime = 0.039882 s  ClockTime = 0 s

Time = 0.445s

Courant Number mean: 0.227384 max: 0.943079
smoothSolver:  Solving for Ux, Initial residual = 6.3168e-06, Final residual = 6.3168e-06, No Iterations 0
smoothSolver:  Solving for Uy, Initial residual = 0, Final residual = 0, No Iterations 0
amgxPCG(skeleton): constructed config="system/amgx.json"
amgxPCG(skeleton): NOT solving; residual=3.61048e-06
amgxPCG:  Solving for p, Initial residual = 0, Final residual = 3.61048e-06, No Iterations 0
[...]
smoothSolver:  Solving for Uy, Initial residual = 0, Final residual = 0, No Iterations 0
amgxPCG(skeleton): constructed config="system/amgx.json"
amgxPCG(skeleton): NOT solving; residual=3.61074e-06
amgxPCG:  Solving for p, Initial residual = 0, Final residual = 3.61074e-06, No Iterations 0
time step continuity errors : sum local = 0.0312874, global = -3.38813e-19, cumulative = -1.99324e-15
amgxPCG(skeleton): constructed config="system/amgx.json"
amgxPCG(skeleton): NOT solving; residual=3.61074e-06
amgxPCG:  Solving for p, Initial residual = 0, Final residual = 3.61074e-06, No Iterations 0
time step continuity errors : sum local = 0.0312874, global = -3.38813e-19, cumulative = -1.99358e-15
ExecutionTime = 0.933665 s  ClockTime = 2 s

Time = 19.9s

Courant Number mean: 0.227432 max: 0.943086
smoothSolver:  Solving for Ux, Initial residual = 2.46064e-16, Final residual = 2.46064e-16, No Iterations 0
smoothSolver:  Solving for Uy, Initial residual = 0, Final residual = 0, No Iterations 0
amgxPCG(skeleton): constructed config="system/amgx.json"
amgxPCG(skeleton): NOT solving; residual=3.61074e-06
amgxPCG:  Solving for p, Initial residual = 0, Final residual = 3.61074e-06, No Iterations 0
time step continuity errors : sum local = 0.0312874, global = -3.38813e-19, cumulative = -1.99392e-15
amgxPCG(skeleton): constructed config="system/amgx.json"
amgxPCG(skeleton): NOT solving; residual=3.61074e-06
amgxPCG:  Solving for p, Initial residual = 0, Final residual = 3.61074e-06, No Iterations 0
time step continuity errors : sum local = 0.0312874, global = -3.38813e-19, cumulative = -1.99425e-15
ExecutionTime = 0.934478 s  ClockTime = 2 s

Time = 19.905s

Courant Number mean: 0.227432 max: 0.943086
smoothSolver:  Solving for Ux, Initial residual = 2.38813e-16, Final residual = 2.38813e-16, No Iterations 0
smoothSolver:  Solving for Uy, Initial residual = 0, Final residual = 0, No Iterations 0
amgxPCG(skeleton): constructed config="system/amgx.json"
amgxPCG(skeleton): NOT solving; residual=3.61074e-06
amgxPCG:  Solving for p, Initial residual = 0, Final residual = 3.61074e-06, No Iterations 0
time step continuity errors : sum local = 0.0312874, global = -3.38813e-19, cumulative = -1.99459e-15
amgxPCG(skeleton): constructed config="system/amgx.json"
amgxPCG(skeleton): NOT solving; residual=3.61074e-06
amgxPCG:  Solving for p, Initial residual = 0, Final residual = 3.61074e-06, No Iterations 0
time step continuity errors : sum local = 0.0312874, global = -3.38813e-19, cumulative = -1.99493e-15
ExecutionTime = 0.934717 s  ClockTime = 2 s

Time = 19.91s

Courant Number mean: 0.227432 max: 0.943086
smoothSolver:  Solving for Ux, Initial residual = 2.46064e-16, Final residual = 2.46064e-16, No Iterations 0
smoothSolver:  Solving for Uy, Initial residual = 0, Final residual = 0, No Iterations 0
amgxPCG(skeleton): constructed config="system/amgx.json"
amgxPCG(skeleton): NOT solving; residual=3.61074e-06
amgxPCG:  Solving for p, Initial residual = 0, Final residual = 3.61074e-06, No Iterations 0
time step continuity errors : sum local = 0.0312874, global = -3.38813e-19, cumulative = -1.99527e-15
amgxPCG(skeleton): constructed config="system/amgx.json"
amgxPCG(skeleton): NOT solving; residual=3.61074e-06
amgxPCG:  Solving for p, Initial residual = 0, Final residual = 3.61074e-06, No Iterations 0
time step continuity errors : sum local = 0.0312874, global = -3.38813e-19, cumulative = -1.99561e-15
ExecutionTime = 0.934891 s  ClockTime = 2 s

Time = 19.915s

Courant Number mean: 0.227432 max: 0.943086
smoothSolver:  Solving for Ux, Initial residual = 2.38813e-16, Final residual = 2.38813e-16, No Iterations 0
smoothSolver:  Solving for Uy, Initial residual = 0, Final residual = 0, No Iterations 0
amgxPCG(skeleton): constructed config="system/amgx.json"
amgxPCG(skeleton): NOT solving; residual=3.61074e-06
amgxPCG:  Solving for p, Initial residual = 0, Final residual = 3.61074e-06, No Iterations 0
time step continuity errors : sum local = 0.0312874, global = -3.38813e-19, cumulative = -1.99595e-15
amgxPCG(skeleton): constructed config="system/amgx.json"
amgxPCG(skeleton): NOT solving; residual=3.61074e-06
amgxPCG:  Solving for p, Initial residual = 0, Final residual = 3.61074e-06, No Iterations 0
time step continuity errors : sum local = 0.0312874, global = -3.38813e-19, cumulative = -1.99629e-15
ExecutionTime = 0.935059 s  ClockTime = 2 s

Time = 19.92s

Courant Number mean: 0.227432 max: 0.943086
smoothSolver:  Solving for Ux, Initial residual = 2.46064e-16, Final residual = 2.46064e-16, No Iterations 0
smoothSolver:  Solving for Uy, Initial residual = 0, Final residual = 0, No Iterations 0
amgxPCG(skeleton): constructed config="system/amgx.json"
amgxPCG(skeleton): NOT solving; residual=3.61074e-06
amgxPCG:  Solving for p, Initial residual = 0, Final residual = 3.61074e-06, No Iterations 0
time step continuity errors : sum local = 0.0312874, global = -3.38813e-19, cumulative = -1.99663e-15
amgxPCG(skeleton): constructed config="system/amgx.json"
amgxPCG(skeleton): NOT solving; residual=3.61074e-06
amgxPCG:  Solving for p, Initial residual = 0, Final residual = 3.61074e-06, No Iterations 0
time step continuity errors : sum local = 0.0312874, global = -3.38813e-19, cumulative = -1.99696e-15
ExecutionTime = 0.93532 s  ClockTime = 2 s

Time = 19.925s

Courant Number mean: 0.227432 max: 0.943086
smoothSolver:  Solving for Ux, Initial residual = 2.38813e-16, Final residual = 2.38813e-16, No Iterations 0
smoothSolver:  Solving for Uy, Initial residual = 0, Final residual = 0, No Iterations 0
amgxPCG(skeleton): constructed config="system/amgx.json"
amgxPCG(skeleton): NOT solving; residual=3.61074e-06
amgxPCG:  Solving for p, Initial residual = 0, Final residual = 3.61074e-06, No Iterations 0
time step continuity errors : sum local = 0.0312874, global = -3.38813e-19, cumulative = -1.9973e-15
amgxPCG(skeleton): constructed config="system/amgx.json"
amgxPCG(skeleton): NOT solving; residual=3.61074e-06
amgxPCG:  Solving for p, Initial residual = 0, Final residual = 3.61074e-06, No Iterations 0
time step continuity errors : sum local = 0.0312874, global = -3.38813e-19, cumulative = -1.99764e-15
ExecutionTime = 0.935494 s  ClockTime = 2 s

Time = 19.93s

Courant Number mean: 0.227432 max: 0.943086
smoothSolver:  Solving for Ux, Initial residual = 2.46064e-16, Final residual = 2.46064e-16, No Iterations 0
smoothSolver:  Solving for Uy, Initial residual = 0, Final residual = 0, No Iterations 0
amgxPCG(skeleton): constructed config="system/amgx.json"
amgxPCG(skeleton): NOT solving; residual=3.61074e-06
amgxPCG:  Solving for p, Initial residual = 0, Final residual = 3.61074e-06, No Iterations 0
time step continuity errors : sum local = 0.0312874, global = -3.38813e-19, cumulative = -1.99798e-15
amgxPCG(skeleton): constructed config="system/amgx.json"
amgxPCG(skeleton): NOT solving; residual=3.61074e-06
amgxPCG:  Solving for p, Initial residual = 0, Final residual = 3.61074e-06, No Iterations 0
time step continuity errors : sum local = 0.0312874, global = -3.38813e-19, cumulative = -1.99832e-15
ExecutionTime = 0.935658 s  ClockTime = 2 s

Time = 19.935s

Courant Number mean: 0.227432 max: 0.943086
smoothSolver:  Solving for Ux, Initial residual = 2.38813e-16, Final residual = 2.38813e-16, No Iterations 0
smoothSolver:  Solving for Uy, Initial residual = 0, Final residual = 0, No Iterations 0
amgxPCG(skeleton): constructed config="system/amgx.json"
amgxPCG(skeleton): NOT solving; residual=3.61074e-06
amgxPCG:  Solving for p, Initial residual = 0, Final residual = 3.61074e-06, No Iterations 0
time step continuity errors : sum local = 0.0312874, global = -3.38813e-19, cumulative = -1.99866e-15
amgxPCG(skeleton): constructed config="system/amgx.json"
amgxPCG(skeleton): NOT solving; residual=3.61074e-06
amgxPCG:  Solving for p, Initial residual = 0, Final residual = 3.61074e-06, No Iterations 0
time step continuity errors : sum local = 0.0312874, global = -3.38813e-19, cumulative = -1.999e-15
ExecutionTime = 0.935822 s  ClockTime = 2 s

Time = 19.94s

Courant Number mean: 0.227432 max: 0.943086
smoothSolver:  Solving for Ux, Initial residual = 2.46064e-16, Final residual = 2.46064e-16, No Iterations 0
smoothSolver:  Solving for Uy, Initial residual = 0, Final residual = 0, No Iterations 0
amgxPCG(skeleton): constructed config="system/amgx.json"
amgxPCG(skeleton): NOT solving; residual=3.61074e-06
amgxPCG:  Solving for p, Initial residual = 0, Final residual = 3.61074e-06, No Iterations 0
time step continuity errors : sum local = 0.0312874, global = -3.38813e-19, cumulative = -1.99934e-15
amgxPCG(skeleton): constructed config="system/amgx.json"
amgxPCG(skeleton): NOT solving; residual=3.61074e-06
amgxPCG:  Solving for p, Initial residual = 0, Final residual = 3.61074e-06, No Iterations 0
time step continuity errors : sum local = 0.0312874, global = -3.38813e-19, cumulative = -1.99968e-15
ExecutionTime = 0.936191 s  ClockTime = 2 s

Time = 19.945s

Courant Number mean: 0.227432 max: 0.943086
smoothSolver:  Solving for Ux, Initial residual = 2.38813e-16, Final residual = 2.38813e-16, No Iterations 0
smoothSolver:  Solving for Uy, Initial residual = 0, Final residual = 0, No Iterations 0
amgxPCG(skeleton): constructed config="system/amgx.json"
amgxPCG(skeleton): NOT solving; residual=3.61074e-06
amgxPCG:  Solving for p, Initial residual = 0, Final residual = 3.61074e-06, No Iterations 0
time step continuity errors : sum local = 0.0312874, global = -3.38813e-19, cumulative = -2.00001e-15
amgxPCG(skeleton): constructed config="system/amgx.json"
amgxPCG(skeleton): NOT solving; residual=3.61074e-06
amgxPCG:  Solving for p, Initial residual = 0, Final residual = 3.61074e-06, No Iterations 0
time step continuity errors : sum local = 0.0312874, global = -3.38813e-19, cumulative = -2.00035e-15
ExecutionTime = 0.93642 s  ClockTime = 2 s

Time = 19.95s

Courant Number mean: 0.227432 max: 0.943086
smoothSolver:  Solving for Ux, Initial residual = 2.46064e-16, Final residual = 2.46064e-16, No Iterations 0
smoothSolver:  Solving for Uy, Initial residual = 0, Final residual = 0, No Iterations 0
amgxPCG(skeleton): constructed config="system/amgx.json"
amgxPCG(skeleton): NOT solving; residual=3.61074e-06
amgxPCG:  Solving for p, Initial residual = 0, Final residual = 3.61074e-06, No Iterations 0
time step continuity errors : sum local = 0.0312874, global = -3.38813e-19, cumulative = -2.00069e-15
amgxPCG(skeleton): constructed config="system/amgx.json"
amgxPCG(skeleton): NOT solving; residual=3.61074e-06
amgxPCG:  Solving for p, Initial residual = 0, Final residual = 3.61074e-06, No Iterations 0
time step continuity errors : sum local = 0.0312874, global = -3.38813e-19, cumulative = -2.00103e-15
ExecutionTime = 0.936597 s  ClockTime = 2 s

Time = 19.955s

Courant Number mean: 0.227432 max: 0.943086
smoothSolver:  Solving for Ux, Initial residual = 2.38813e-16, Final residual = 2.38813e-16, No Iterations 0
smoothSolver:  Solving for Uy, Initial residual = 0, Final residual = 0, No Iterations 0
amgxPCG(skeleton): constructed config="system/amgx.json"
amgxPCG(skeleton): NOT solving; residual=3.61074e-06
amgxPCG:  Solving for p, Initial residual = 0, Final residual = 3.61074e-06, No Iterations 0
time step continuity errors : sum local = 0.0312874, global = -3.38813e-19, cumulative = -2.00137e-15
amgxPCG(skeleton): constructed config="system/amgx.json"
amgxPCG(skeleton): NOT solving; residual=3.61074e-06
amgxPCG:  Solving for p, Initial residual = 0, Final residual = 3.61074e-06, No Iterations 0
time step continuity errors : sum local = 0.0312874, global = -3.38813e-19, cumulative = -2.00171e-15
ExecutionTime = 0.936765 s  ClockTime = 2 s

Time = 19.96s

Courant Number mean: 0.227432 max: 0.943086
smoothSolver:  Solving for Ux, Initial residual = 2.46064e-16, Final residual = 2.46064e-16, No Iterations 0
smoothSolver:  Solving for Uy, Initial residual = 0, Final residual = 0, No Iterations 0
amgxPCG(skeleton): constructed config="system/amgx.json"
amgxPCG(skeleton): NOT solving; residual=3.61074e-06
amgxPCG:  Solving for p, Initial residual = 0, Final residual = 3.61074e-06, No Iterations 0
time step continuity errors : sum local = 0.0312874, global = -3.38813e-19, cumulative = -2.00205e-15
amgxPCG(skeleton): constructed config="system/amgx.json"
amgxPCG(skeleton): NOT solving; residual=3.61074e-06
amgxPCG:  Solving for p, Initial residual = 0, Final residual = 3.61074e-06, No Iterations 0
time step continuity errors : sum local = 0.0312874, global = -3.38813e-19, cumulative = -2.00239e-15
ExecutionTime = 0.936967 s  ClockTime = 2 s

Time = 19.965s

Courant Number mean: 0.227432 max: 0.943086
smoothSolver:  Solving for Ux, Initial residual = 2.38813e-16, Final residual = 2.38813e-16, No Iterations 0
smoothSolver:  Solving for Uy, Initial residual = 0, Final residual = 0, No Iterations 0
amgxPCG(skeleton): constructed config="system/amgx.json"
amgxPCG(skeleton): NOT solving; residual=3.61074e-06
amgxPCG:  Solving for p, Initial residual = 0, Final residual = 3.61074e-06, No Iterations 0
time step continuity errors : sum local = 0.0312874, global = -3.38813e-19, cumulative = -2.00272e-15
amgxPCG(skeleton): constructed config="system/amgx.json"
amgxPCG(skeleton): NOT solving; residual=3.61074e-06
amgxPCG:  Solving for p, Initial residual = 0, Final residual = 3.61074e-06, No Iterations 0
time step continuity errors : sum local = 0.0312874, global = -3.38813e-19, cumulative = -2.00306e-15
ExecutionTime = 0.937153 s  ClockTime = 2 s

Time = 19.97s

Courant Number mean: 0.227432 max: 0.943086
smoothSolver:  Solving for Ux, Initial residual = 2.46064e-16, Final residual = 2.46064e-16, No Iterations 0
smoothSolver:  Solving for Uy, Initial residual = 0, Final residual = 0, No Iterations 0
amgxPCG(skeleton): constructed config="system/amgx.json"
amgxPCG(skeleton): NOT solving; residual=3.61074e-06
amgxPCG:  Solving for p, Initial residual = 0, Final residual = 3.61074e-06, No Iterations 0
time step continuity errors : sum local = 0.0312874, global = -3.38813e-19, cumulative = -2.0034e-15
amgxPCG(skeleton): constructed config="system/amgx.json"
amgxPCG(skeleton): NOT solving; residual=3.61074e-06
amgxPCG:  Solving for p, Initial residual = 0, Final residual = 3.61074e-06, No Iterations 0
time step continuity errors : sum local = 0.0312874, global = -3.38813e-19, cumulative = -2.00374e-15
ExecutionTime = 0.93732 s  ClockTime = 2 s

Time = 19.975s

Courant Number mean: 0.227432 max: 0.943086
smoothSolver:  Solving for Ux, Initial residual = 2.38813e-16, Final residual = 2.38813e-16, No Iterations 0
smoothSolver:  Solving for Uy, Initial residual = 0, Final residual = 0, No Iterations 0
amgxPCG(skeleton): constructed config="system/amgx.json"
amgxPCG(skeleton): NOT solving; residual=3.61074e-06
amgxPCG:  Solving for p, Initial residual = 0, Final residual = 3.61074e-06, No Iterations 0
time step continuity errors : sum local = 0.0312874, global = -3.38813e-19, cumulative = -2.00408e-15
amgxPCG(skeleton): constructed config="system/amgx.json"
amgxPCG(skeleton): NOT solving; residual=3.61074e-06
amgxPCG:  Solving for p, Initial residual = 0, Final residual = 3.61074e-06, No Iterations 0
time step continuity errors : sum local = 0.0312874, global = -3.38813e-19, cumulative = -2.00442e-15
ExecutionTime = 0.93751 s  ClockTime = 2 s

Time = 19.98s

Courant Number mean: 0.227432 max: 0.943086
smoothSolver:  Solving for Ux, Initial residual = 2.46064e-16, Final residual = 2.46064e-16, No Iterations 0
smoothSolver:  Solving for Uy, Initial residual = 0, Final residual = 0, No Iterations 0
amgxPCG(skeleton): constructed config="system/amgx.json"
amgxPCG(skeleton): NOT solving; residual=3.61074e-06
amgxPCG:  Solving for p, Initial residual = 0, Final residual = 3.61074e-06, No Iterations 0
time step continuity errors : sum local = 0.0312874, global = -3.38813e-19, cumulative = -2.00476e-15
amgxPCG(skeleton): constructed config="system/amgx.json"
amgxPCG(skeleton): NOT solving; residual=3.61074e-06
amgxPCG:  Solving for p, Initial residual = 0, Final residual = 3.61074e-06, No Iterations 0
time step continuity errors : sum local = 0.0312874, global = -3.38813e-19, cumulative = -2.0051e-15
ExecutionTime = 0.937745 s  ClockTime = 2 s

Time = 19.985s

Courant Number mean: 0.227432 max: 0.943086
smoothSolver:  Solving for Ux, Initial residual = 2.38813e-16, Final residual = 2.38813e-16, No Iterations 0
smoothSolver:  Solving for Uy, Initial residual = 0, Final residual = 0, No Iterations 0
amgxPCG(skeleton): constructed config="system/amgx.json"
amgxPCG(skeleton): NOT solving; residual=3.61074e-06
amgxPCG:  Solving for p, Initial residual = 0, Final residual = 3.61074e-06, No Iterations 0
time step continuity errors : sum local = 0.0312874, global = -3.38813e-19, cumulative = -2.00544e-15
amgxPCG(skeleton): constructed config="system/amgx.json"
amgxPCG(skeleton): NOT solving; residual=3.61074e-06
amgxPCG:  Solving for p, Initial residual = 0, Final residual = 3.61074e-06, No Iterations 0
time step continuity errors : sum local = 0.0312874, global = -3.38813e-19, cumulative = -2.00577e-15
ExecutionTime = 0.938236 s  ClockTime = 2 s

Time = 19.99s

Courant Number mean: 0.227432 max: 0.943086
smoothSolver:  Solving for Ux, Initial residual = 2.46064e-16, Final residual = 2.46064e-16, No Iterations 0
smoothSolver:  Solving for Uy, Initial residual = 0, Final residual = 0, No Iterations 0
amgxPCG(skeleton): constructed config="system/amgx.json"
amgxPCG(skeleton): NOT solving; residual=3.61074e-06
amgxPCG:  Solving for p, Initial residual = 0, Final residual = 3.61074e-06, No Iterations 0
time step continuity errors : sum local = 0.0312874, global = -3.38813e-19, cumulative = -2.00611e-15
amgxPCG(skeleton): constructed config="system/amgx.json"
amgxPCG(skeleton): NOT solving; residual=3.61074e-06
amgxPCG:  Solving for p, Initial residual = 0, Final residual = 3.61074e-06, No Iterations 0
time step continuity errors : sum local = 0.0312874, global = -3.38813e-19, cumulative = -2.00645e-15
ExecutionTime = 0.938445 s  ClockTime = 2 s

Time = 19.995s

Courant Number mean: 0.227432 max: 0.943086
smoothSolver:  Solving for Ux, Initial residual = 2.38813e-16, Final residual = 2.38813e-16, No Iterations 0
smoothSolver:  Solving for Uy, Initial residual = 0, Final residual = 0, No Iterations 0
amgxPCG(skeleton): constructed config="system/amgx.json"
amgxPCG(skeleton): NOT solving; residual=3.61074e-06
amgxPCG:  Solving for p, Initial residual = 0, Final residual = 3.61074e-06, No Iterations 0
time step continuity errors : sum local = 0.0312874, global = -3.38813e-19, cumulative = -2.00679e-15
amgxPCG(skeleton): constructed config="system/amgx.json"
amgxPCG(skeleton): NOT solving; residual=3.61074e-06
amgxPCG:  Solving for p, Initial residual = 0, Final residual = 3.61074e-06, No Iterations 0
time step continuity errors : sum local = 0.0312874, global = -3.38813e-19, cumulative = -2.00713e-15
ExecutionTime = 0.938622 s  ClockTime = 2 s

Time = 20s

Courant Number mean: 0.227432 max: 0.943086
smoothSolver:  Solving for Ux, Initial residual = 2.46064e-16, Final residual = 2.46064e-16, No Iterations 0
smoothSolver:  Solving for Uy, Initial residual = 0, Final residual = 0, No Iterations 0
amgxPCG(skeleton): constructed config="system/amgx.json"
amgxPCG(skeleton): NOT solving; residual=3.61074e-06
amgxPCG:  Solving for p, Initial residual = 0, Final residual = 3.61074e-06, No Iterations 0
time step continuity errors : sum local = 0.0312874, global = -3.38813e-19, cumulative = -2.00747e-15
amgxPCG(skeleton): constructed config="system/amgx.json"
amgxPCG(skeleton): NOT solving; residual=3.61074e-06
amgxPCG:  Solving for p, Initial residual = 0, Final residual = 3.61074e-06, No Iterations 0
time step continuity errors : sum local = 0.0312874, global = -3.38813e-19, cumulative = -2.00781e-15
ExecutionTime = 0.939351 s  ClockTime = 2 s

End

